/*---------------------------------------------------------------------------*\
| =========                 |                                                 |
| \\      /  F ield         | OpenFOAM: The Open Source CFD Toolbox           |
|  \\    /   O peration     | Version:  2.3.0                                 |
|   \\  /    A nd           | Web:      www.OpenFOAM.org                      |
|    \\/     M anipulation  |                                                 |
\*---------------------------------------------------------------------------*/
Build  : 2.3.0-f5222ca19ce6
Exec   : laplacianFoamF
Date   : Dec 04 2014
Time   : 15:14:14
Host   : "debian-toshiba"
PID    : 13204
Case   : /home/jenek/laplacianFoamF/laplacianFoamF/case5cells
nProcs : 1
sigFpe : Enabling floating point exception trapping (FOAM_SIGFPE).
fileModificationChecking : Monitoring run-time modified files using timeStampMaster
allowSystemOperations : Disallowing user-supplied system call operations

// * * * * * * * * * * * * * * * * * * * * * * * * * * * * * * * * * * * * * //
Create time

Create mesh for time = 0

Selecting dynamicFvMesh dynamicRefineFvMesh

SIMPLE: convergence criteria
field T	 tolerance 0.0001

Reading field T

Reading transportProperties

Reading diffusivity DT


Starting time loop

Time = 0.005

DICPCG:  Solving for T, Initial residual = 1, Final residual = 8.20346e-17, No Iterations 1
DICPCG:  Solving for T, Initial residual = 8.36011e-15, Final residual = 8.36011e-15, No Iterations 0
DICPCG:  Solving for T, Initial residual = 8.36011e-15, Final residual = 8.36011e-15, No Iterations 0
nonDiag.size()=8

U.size()=8

F.size()=8

F = normalisedF;

Selected 0 cells for refinement out of 8.
Selected 0 split points out of a possible 0.
mesh updated
Time = 0.01

DICPCG:  Solving for T, Initial residual = 0.995118, Final residual = 2.72113e-17, No Iterations 1
DICPCG:  Solving for T, Initial residual = 2.22936e-14, Final residual = 2.22936e-14, No Iterations 0
DICPCG:  Solving for T, Initial residual = 2.22936e-14, Final residual = 2.22936e-14, No Iterations 0
nonDiag.size()=8

U.size()=8

F.size()=8

F = normalisedF;

Selected 0 cells for refinement out of 8.
Selected 0 split points out of a possible 0.
mesh updated
Time = 0.015

DICPCG:  Solving for T, Initial residual = 0.990283, Final residual = 1.36348e-16, No Iterations 1
DICPCG:  Solving for T, Initial residual = 1.48624e-14, Final residual = 1.48624e-14, No Iterations 0
DICPCG:  Solving for T, Initial residual = 1.48624e-14, Final residual = 1.48624e-14, No Iterations 0
nonDiag.size()=8

U.size()=8

F.size()=8

F = normalisedF;

Selected 0 cells for refinement out of 8.
Selected 0 split points out of a possible 0.
mesh updated
Time = 0.02

DICPCG:  Solving for T, Initial residual = 0.985495, Final residual = 1.07793e-16, No Iterations 1
DICPCG:  Solving for T, Initial residual = 0, Final residual = 0, No Iterations 0
DICPCG:  Solving for T, Initial residual = 0, Final residual = 0, No Iterations 0
nonDiag.size()=8

U.size()=8

F.size()=8

F = normalisedF;

Selected 0 cells for refinement out of 8.
Selected 0 split points out of a possible 0.
mesh updated
Time = 0.025

DICPCG:  Solving for T, Initial residual = 0.980753, Final residual = 1.31081e-16, No Iterations 1
DICPCG:  Solving for T, Initial residual = 8.91745e-15, Final residual = 8.91745e-15, No Iterations 0
DICPCG:  Solving for T, Initial residual = 8.91745e-15, Final residual = 8.91745e-15, No Iterations 0
nonDiag.size()=8

U.size()=8

F.size()=8

F = normalisedF;

Selected 0 cells for refinement out of 8.
Selected 0 split points out of a possible 0.
mesh updated
Time = 0.03

DICPCG:  Solving for T, Initial residual = 0.976056, Final residual = 1.33451e-16, No Iterations 1
DICPCG:  Solving for T, Initial residual = 7.43121e-15, Final residual = 7.43121e-15, No Iterations 0
DICPCG:  Solving for T, Initial residual = 7.43121e-15, Final residual = 7.43121e-15, No Iterations 0
nonDiag.size()=8

U.size()=8

F.size()=8

F = normalisedF;

Selected 0 cells for refinement out of 8.
Selected 0 split points out of a possible 0.
mesh updated
Time = 0.035

DICPCG:  Solving for T, Initial residual = 0.971404, Final residual = 1.5297e-16, No Iterations 1
DICPCG:  Solving for T, Initial residual = 6.36961e-15, Final residual = 6.36961e-15, No Iterations 0
DICPCG:  Solving for T, Initial residual = 6.36961e-15, Final residual = 6.36961e-15, No Iterations 0
nonDiag.size()=8

U.size()=8

F.size()=8

F = normalisedF;

Selected 0 cells for refinement out of 8.
Selected 0 split points out of a possible 0.
mesh updated
Time = 0.04

DICPCG:  Solving for T, Initial residual = 0.966796, Final residual = 7.93107e-17, No Iterations 1
DICPCG:  Solving for T, Initial residual = 5.57341e-15, Final residual = 5.57341e-15, No Iterations 0
DICPCG:  Solving for T, Initial residual = 5.57341e-15, Final residual = 5.57341e-15, No Iterations 0
nonDiag.size()=8

U.size()=8

F.size()=8

F = normalisedF;

Selected 0 cells for refinement out of 8.
Selected 0 split points out of a possible 0.
mesh updated
Time = 0.045

DICPCG:  Solving for T, Initial residual = 0.962232, Final residual = 1.05248e-16, No Iterations 1
DICPCG:  Solving for T, Initial residual = 9.90828e-15, Final residual = 9.90828e-15, No Iterations 0
DICPCG:  Solving for T, Initial residual = 9.90828e-15, Final residual = 9.90828e-15, No Iterations 0
nonDiag.size()=8

U.size()=8

F.size()=8

F = normalisedF;

Selected 0 cells for refinement out of 8.
Selected 0 split points out of a possible 0.
mesh updated
Time = 0.05

DICPCG:  Solving for T, Initial residual = 0.957711, Final residual = 7.85654e-17, No Iterations 1
DICPCG:  Solving for T, Initial residual = 2.22936e-14, Final residual = 2.22936e-14, No Iterations 0
DICPCG:  Solving for T, Initial residual = 2.22936e-14, Final residual = 2.22936e-14, No Iterations 0
nonDiag.size()=8

U.size()=8

F.size()=8

F = normalisedF;

Selected 0 cells for refinement out of 8.
Selected 0 split points out of a possible 0.
mesh updated
Time = 0.055

DICPCG:  Solving for T, Initial residual = 0.953232, Final residual = 1.3033e-16, No Iterations 1
DICPCG:  Solving for T, Initial residual = 8.10678e-15, Final residual = 8.10678e-15, No Iterations 0
DICPCG:  Solving for T, Initial residual = 8.10678e-15, Final residual = 8.10678e-15, No Iterations 0
nonDiag.size()=8

U.size()=8

F.size()=8

F = normalisedF;

Selected 0 cells for refinement out of 8.
Selected 0 split points out of a possible 0.
mesh updated
Time = 0.06

DICPCG:  Solving for T, Initial residual = 0.948794, Final residual = 1.52754e-16, No Iterations 1
DICPCG:  Solving for T, Initial residual = 9.28901e-15, Final residual = 9.28901e-15, No Iterations 0
DICPCG:  Solving for T, Initial residual = 9.28901e-15, Final residual = 9.28901e-15, No Iterations 0
nonDiag.size()=8

U.size()=8

F.size()=8

F = normalisedF;

Selected 0 cells for refinement out of 8.
Selected 0 split points out of a possible 0.
mesh updated
Time = 0.065

DICPCG:  Solving for T, Initial residual = 0.944398, Final residual = 2.58244e-17, No Iterations 1
DICPCG:  Solving for T, Initial residual = 1.54341e-14, Final residual = 1.54341e-14, No Iterations 0
DICPCG:  Solving for T, Initial residual = 1.54341e-14, Final residual = 1.54341e-14, No Iterations 0
nonDiag.size()=8

U.size()=8

F.size()=8

F = normalisedF;

Selected 0 cells for refinement out of 8.
Selected 0 split points out of a possible 0.
mesh updated
Time = 0.07

DICPCG:  Solving for T, Initial residual = 0.940042, Final residual = 1.28527e-16, No Iterations 1
DICPCG:  Solving for T, Initial residual = 0, Final residual = 0, No Iterations 0
DICPCG:  Solving for T, Initial residual = 0, Final residual = 0, No Iterations 0
nonDiag.size()=8

U.size()=8

F.size()=8

F = normalisedF;

Selected 0 cells for refinement out of 8.
Selected 0 split points out of a possible 0.
mesh updated
Time = 0.075

DICPCG:  Solving for T, Initial residual = 0.935727, Final residual = 7.67619e-17, No Iterations 1
DICPCG:  Solving for T, Initial residual = 7.43121e-15, Final residual = 7.43121e-15, No Iterations 0
DICPCG:  Solving for T, Initial residual = 7.43121e-15, Final residual = 7.43121e-15, No Iterations 0
nonDiag.size()=8

U.size()=8

F.size()=8

F = normalisedF;

Selected 0 cells for refinement out of 8.
Selected 0 split points out of a possible 0.
mesh updated
Time = 0.08

DICPCG:  Solving for T, Initial residual = 0.93145, Final residual = 2.54704e-17, No Iterations 1
DICPCG:  Solving for T, Initial residual = 0, Final residual = 0, No Iterations 0
DICPCG:  Solving for T, Initial residual = 0, Final residual = 0, No Iterations 0
nonDiag.size()=8

U.size()=8

F.size()=8

F = normalisedF;

Selected 0 cells for refinement out of 8.
Selected 0 split points out of a possible 0.
mesh updated
Time = 0.085

DICPCG:  Solving for T, Initial residual = 0.927213, Final residual = 1.49725e-16, No Iterations 1
DICPCG:  Solving for T, Initial residual = 0, Final residual = 0, No Iterations 0
DICPCG:  Solving for T, Initial residual = 0, Final residual = 0, No Iterations 0
nonDiag.size()=8

U.size()=8

F.size()=8

F = normalisedF;

Selected 0 cells for refinement out of 8.
Selected 0 split points out of a possible 0.
mesh updated
Time = 0.09

DICPCG:  Solving for T, Initial residual = 0.923014, Final residual = 2.52397e-17, No Iterations 1
DICPCG:  Solving for T, Initial residual = 0, Final residual = 0, No Iterations 0
DICPCG:  Solving for T, Initial residual = 0, Final residual = 0, No Iterations 0
nonDiag.size()=8

U.size()=8

F.size()=8

F = normalisedF;

Selected 0 cells for refinement out of 8.
Selected 0 split points out of a possible 0.
mesh updated
Time = 0.095

DICPCG:  Solving for T, Initial residual = 0.918853, Final residual = 1.47958e-16, No Iterations 1
DICPCG:  Solving for T, Initial residual = 1.17335e-14, Final residual = 1.17335e-14, No Iterations 0
DICPCG:  Solving for T, Initial residual = 1.17335e-14, Final residual = 1.17335e-14, No Iterations 0
nonDiag.size()=8

U.size()=8

F.size()=8

F = normalisedF;

Selected 0 cells for refinement out of 8.
Selected 0 split points out of a possible 0.
mesh updated
Time = 0.1

DICPCG:  Solving for T, Initial residual = 0.914729, Final residual = 7.50394e-17, No Iterations 1
DICPCG:  Solving for T, Initial residual = 8.91745e-15, Final residual = 8.91745e-15, No Iterations 0
DICPCG:  Solving for T, Initial residual = 8.91745e-15, Final residual = 8.91745e-15, No Iterations 0
nonDiag.size()=8

U.size()=8

F.size()=8

F = normalisedF;

Selected 0 cells for refinement out of 8.
Selected 0 split points out of a possible 0.
mesh updated
Time = 0.105

DICPCG:  Solving for T, Initial residual = 0.910642, Final residual = 0, No Iterations 1
DICPCG:  Solving for T, Initial residual = 1.69856e-14, Final residual = 1.69856e-14, No Iterations 0
DICPCG:  Solving for T, Initial residual = 1.69856e-14, Final residual = 1.69856e-14, No Iterations 0
nonDiag.size()=8

U.size()=8

F.size()=8

F = normalisedF;

Selected 0 cells for refinement out of 8.
Selected 0 split points out of a possible 0.
mesh updated
Time = 0.11

DICPCG:  Solving for T, Initial residual = 0.906592, Final residual = 4.95812e-17, No Iterations 1
DICPCG:  Solving for T, Initial residual = 8.10677e-15, Final residual = 8.10677e-15, No Iterations 0
DICPCG:  Solving for T, Initial residual = 8.10677e-15, Final residual = 8.10677e-15, No Iterations 0
nonDiag.size()=8

U.size()=8

F.size()=8

F = normalisedF;

Selected 0 cells for refinement out of 8.
Selected 0 split points out of a possible 0.
mesh updated
Time = 0.115

DICPCG:  Solving for T, Initial residual = 0.902577, Final residual = 2.46808e-17, No Iterations 1
DICPCG:  Solving for T, Initial residual = 7.75431e-15, Final residual = 7.75431e-15, No Iterations 0
DICPCG:  Solving for T, Initial residual = 7.75431e-15, Final residual = 7.75431e-15, No Iterations 0
nonDiag.size()=8

U.size()=8

F.size()=8

F = normalisedF;

Selected 0 cells for refinement out of 8.
Selected 0 split points out of a possible 0.
mesh updated
Time = 0.12

DICPCG:  Solving for T, Initial residual = 0.898598, Final residual = 2.4572e-17, No Iterations 1
DICPCG:  Solving for T, Initial residual = 3.71561e-15, Final residual = 3.71561e-15, No Iterations 0
DICPCG:  Solving for T, Initial residual = 3.71561e-15, Final residual = 3.71561e-15, No Iterations 0
nonDiag.size()=8

U.size()=8

F.size()=8

F = normalisedF;

Selected 0 cells for refinement out of 8.
Selected 0 split points out of a possible 0.
mesh updated
Time = 0.125

DICPCG:  Solving for T, Initial residual = 0.894653, Final residual = 7.33925e-17, No Iterations 1
DICPCG:  Solving for T, Initial residual = 1.07009e-14, Final residual = 1.07009e-14, No Iterations 0
DICPCG:  Solving for T, Initial residual = 1.07009e-14, Final residual = 1.07009e-14, No Iterations 0
nonDiag.size()=8

U.size()=8

F.size()=8

F = normalisedF;

Selected 0 cells for refinement out of 8.
Selected 0 split points out of a possible 0.
mesh updated
Time = 0.13

DICPCG:  Solving for T, Initial residual = 0.890743, Final residual = 1.61438e-16, No Iterations 1
DICPCG:  Solving for T, Initial residual = 6.85958e-15, Final residual = 6.85958e-15, No Iterations 0
DICPCG:  Solving for T, Initial residual = 6.85958e-15, Final residual = 6.85958e-15, No Iterations 0
nonDiag.size()=8

U.size()=8

F.size()=8

F = normalisedF;

Selected 0 cells for refinement out of 8.
Selected 0 split points out of a possible 0.
mesh updated
Time = 0.135

DICPCG:  Solving for T, Initial residual = 0.886868, Final residual = 9.74314e-17, No Iterations 1
DICPCG:  Solving for T, Initial residual = 1.3211e-14, Final residual = 1.3211e-14, No Iterations 0
DICPCG:  Solving for T, Initial residual = 1.3211e-14, Final residual = 1.3211e-14, No Iterations 0
nonDiag.size()=8

U.size()=8

F.size()=8

F = normalisedF;

Selected 0 cells for refinement out of 8.
Selected 0 split points out of a possible 0.
mesh updated
Time = 0.14

DICPCG:  Solving for T, Initial residual = 0.883025, Final residual = 4.82924e-17, No Iterations 1
DICPCG:  Solving for T, Initial residual = 1.11468e-14, Final residual = 1.11468e-14, No Iterations 0
DICPCG:  Solving for T, Initial residual = 1.11468e-14, Final residual = 1.11468e-14, No Iterations 0
nonDiag.size()=8

U.size()=8

F.size()=8

F = normalisedF;

Selected 0 cells for refinement out of 8.
Selected 0 split points out of a possible 0.
mesh updated
Time = 0.145

DICPCG:  Solving for T, Initial residual = 0.879216, Final residual = 1.41552e-16, No Iterations 1
DICPCG:  Solving for T, Initial residual = 4.61248e-15, Final residual = 4.61248e-15, No Iterations 0
DICPCG:  Solving for T, Initial residual = 4.61248e-15, Final residual = 4.61248e-15, No Iterations 0
nonDiag.size()=8

U.size()=8

F.size()=8

F = normalisedF;

Selected 0 cells for refinement out of 8.
Selected 0 split points out of a possible 0.
mesh updated
Time = 0.15

DICPCG:  Solving for T, Initial residual = 0.87544, Final residual = 9.57551e-17, No Iterations 1
DICPCG:  Solving for T, Initial residual = 1.18899e-14, Final residual = 1.18899e-14, No Iterations 0
DICPCG:  Solving for T, Initial residual = 1.18899e-14, Final residual = 1.18899e-14, No Iterations 0
nonDiag.size()=8

U.size()=8

F.size()=8

F = normalisedF;

Selected 0 cells for refinement out of 8.
Selected 0 split points out of a possible 0.
mesh updated
Time = 0.155

DICPCG:  Solving for T, Initial residual = 0.871696, Final residual = 9.53456e-17, No Iterations 1
DICPCG:  Solving for T, Initial residual = 1.4383e-15, Final residual = 1.4383e-15, No Iterations 0
DICPCG:  Solving for T, Initial residual = 1.4383e-15, Final residual = 1.4383e-15, No Iterations 0
nonDiag.size()=8

U.size()=8

F.size()=8

F = normalisedF;

Selected 0 cells for refinement out of 8.
Selected 0 split points out of a possible 0.
mesh updated
Time = 0.16

DICPCG:  Solving for T, Initial residual = 0.867984, Final residual = 7.12047e-17, No Iterations 1
DICPCG:  Solving for T, Initial residual = 1.11468e-14, Final residual = 1.11468e-14, No Iterations 0
DICPCG:  Solving for T, Initial residual = 1.11468e-14, Final residual = 1.11468e-14, No Iterations 0
nonDiag.size()=8

U.size()=8

F.size()=8

F = normalisedF;

Selected 0 cells for refinement out of 8.
Selected 0 split points out of a possible 0.
mesh updated
Time = 0.165

DICPCG:  Solving for T, Initial residual = 0.864303, Final residual = 0, No Iterations 1
DICPCG:  Solving for T, Initial residual = 1.0809e-14, Final residual = 1.0809e-14, No Iterations 0
DICPCG:  Solving for T, Initial residual = 1.0809e-14, Final residual = 1.0809e-14, No Iterations 0
nonDiag.size()=8

U.size()=8

F.size()=8

F = normalisedF;

Selected 0 cells for refinement out of 8.
Selected 0 split points out of a possible 0.
mesh updated
Time = 0.17

DICPCG:  Solving for T, Initial residual = 0.860653, Final residual = 4.70689e-17, No Iterations 1
DICPCG:  Solving for T, Initial residual = 0, Final residual = 0, No Iterations 0
DICPCG:  Solving for T, Initial residual = 0, Final residual = 0, No Iterations 0
nonDiag.size()=8

U.size()=8

F.size()=8

F = normalisedF;

Selected 0 cells for refinement out of 8.
Selected 0 split points out of a possible 0.
mesh updated
Time = 0.175

DICPCG:  Solving for T, Initial residual = 0.857034, Final residual = 7.03064e-17, No Iterations 1
DICPCG:  Solving for T, Initial residual = 1.01914e-14, Final residual = 1.01914e-14, No Iterations 0
DICPCG:  Solving for T, Initial residual = 1.01914e-14, Final residual = 1.01914e-14, No Iterations 0
nonDiag.size()=8

U.size()=8

F.size()=8

F = normalisedF;

Selected 0 cells for refinement out of 8.
Selected 0 split points out of a possible 0.
mesh updated
Time = 0.18

DICPCG:  Solving for T, Initial residual = 0.853446, Final residual = 4.66747e-17, No Iterations 1
DICPCG:  Solving for T, Initial residual = 0, Final residual = 0, No Iterations 0
DICPCG:  Solving for T, Initial residual = 0, Final residual = 0, No Iterations 0
nonDiag.size()=8

U.size()=8

F.size()=8

F = normalisedF;

Selected 0 cells for refinement out of 8.
Selected 0 split points out of a possible 0.
mesh updated
Time = 0.185

DICPCG:  Solving for T, Initial residual = 0.849887, Final residual = 6.97201e-17, No Iterations 1
DICPCG:  Solving for T, Initial residual = 0, Final residual = 0, No Iterations 0
DICPCG:  Solving for T, Initial residual = 0, Final residual = 0, No Iterations 0
nonDiag.size()=8

U.size()=8

F.size()=8

F = normalisedF;

Selected 0 cells for refinement out of 8.
Selected 0 split points out of a possible 0.
mesh updated
Time = 0.19

DICPCG:  Solving for T, Initial residual = 0.846358, Final residual = 1.38861e-16, No Iterations 1
DICPCG:  Solving for T, Initial residual = 9.38679e-15, Final residual = 9.38679e-15, No Iterations 0
DICPCG:  Solving for T, Initial residual = 9.38679e-15, Final residual = 9.38679e-15, No Iterations 0
nonDiag.size()=8

U.size()=8

F.size()=8

F = normalisedF;

Selected 0 cells for refinement out of 8.
Selected 0 split points out of a possible 0.
mesh updated
Time = 0.195

DICPCG:  Solving for T, Initial residual = 0.842858, Final residual = 1.35721e-16, No Iterations 1
DICPCG:  Solving for T, Initial residual = 4.57305e-15, Final residual = 4.57305e-15, No Iterations 0
DICPCG:  Solving for T, Initial residual = 4.57305e-15, Final residual = 4.57305e-15, No Iterations 0
nonDiag.size()=8

U.size()=8

F.size()=8

F = normalisedF;

Selected 0 cells for refinement out of 8.
Selected 0 split points out of a possible 0.
mesh updated
Time = 0.2

DICPCG:  Solving for T, Initial residual = 0.839387, Final residual = 6.88587e-17, No Iterations 1
DICPCG:  Solving for T, Initial residual = 4.45873e-15, Final residual = 4.45873e-15, No Iterations 0
DICPCG:  Solving for T, Initial residual = 4.45873e-15, Final residual = 4.45873e-15, No Iterations 0
nonDiag.size()=8

U.size()=8

F.size()=8

F = normalisedF;

Selected 0 cells for refinement out of 8.
Selected 0 split points out of a possible 0.
mesh updated
Time = 0.205

DICPCG:  Solving for T, Initial residual = 0.835944, Final residual = 9.14351e-17, No Iterations 1
DICPCG:  Solving for T, Initial residual = 0, Final residual = 0, No Iterations 0
DICPCG:  Solving for T, Initial residual = 0, Final residual = 0, No Iterations 0
nonDiag.size()=8

U.size()=8

F.size()=8

F = normalisedF;

Selected 0 cells for refinement out of 8.
Selected 0 split points out of a possible 0.
mesh updated
Time = 0.21

DICPCG:  Solving for T, Initial residual = 0.832529, Final residual = 1.13827e-16, No Iterations 1
DICPCG:  Solving for T, Initial residual = 1.69856e-14, Final residual = 1.69856e-14, No Iterations 0
DICPCG:  Solving for T, Initial residual = 1.69856e-14, Final residual = 1.69856e-14, No Iterations 0
nonDiag.size()=8

U.size()=8

F.size()=8

F = normalisedF;

Selected 0 cells for refinement out of 8.
Selected 0 split points out of a possible 0.
mesh updated
Time = 0.215

DICPCG:  Solving for T, Initial residual = 0.829143, Final residual = 9.06912e-17, No Iterations 1
DICPCG:  Solving for T, Initial residual = 4.14765e-15, Final residual = 4.14765e-15, No Iterations 0
DICPCG:  Solving for T, Initial residual = 4.14765e-15, Final residual = 4.14765e-15, No Iterations 0
nonDiag.size()=8

U.size()=8

F.size()=8

F = normalisedF;

Selected 0 cells for refinement out of 8.
Selected 0 split points out of a possible 0.
mesh updated
Time = 0.22

DICPCG:  Solving for T, Initial residual = 0.825783, Final residual = 9.03237e-17, No Iterations 1
DICPCG:  Solving for T, Initial residual = 1.62135e-14, Final residual = 1.62135e-14, No Iterations 0
DICPCG:  Solving for T, Initial residual = 1.62135e-14, Final residual = 1.62135e-14, No Iterations 0
nonDiag.size()=8

U.size()=8

F.size()=8

F = normalisedF;

Selected 0 cells for refinement out of 8.
Selected 0 split points out of a possible 0.
mesh updated
Time = 0.225

DICPCG:  Solving for T, Initial residual = 0.822451, Final residual = 6.74694e-17, No Iterations 1
DICPCG:  Solving for T, Initial residual = 3.96331e-15, Final residual = 3.96331e-15, No Iterations 0
DICPCG:  Solving for T, Initial residual = 3.96331e-15, Final residual = 3.96331e-15, No Iterations 0
nonDiag.size()=8

U.size()=8

F.size()=8

F = normalisedF;

Selected 0 cells for refinement out of 8.
Selected 0 split points out of a possible 0.
mesh updated
Time = 0.23

DICPCG:  Solving for T, Initial residual = 0.819146, Final residual = 1.34397e-16, No Iterations 1
DICPCG:  Solving for T, Initial residual = 3.87715e-15, Final residual = 3.87715e-15, No Iterations 0
DICPCG:  Solving for T, Initial residual = 3.87715e-15, Final residual = 3.87715e-15, No Iterations 0
nonDiag.size()=8

U.size()=8

F.size()=8

F = normalisedF;

Selected 0 cells for refinement out of 8.
Selected 0 split points out of a possible 0.
mesh updated
Time = 0.235

DICPCG:  Solving for T, Initial residual = 0.815867, Final residual = 4.46195e-17, No Iterations 1
DICPCG:  Solving for T, Initial residual = 1.51786e-14, Final residual = 1.51786e-14, No Iterations 0
DICPCG:  Solving for T, Initial residual = 1.51786e-14, Final residual = 1.51786e-14, No Iterations 0
nonDiag.size()=8

U.size()=8

F.size()=8

F = normalisedF;

Selected 0 cells for refinement out of 8.
Selected 0 split points out of a possible 0.
mesh updated
Time = 0.24

DICPCG:  Solving for T, Initial residual = 0.812614, Final residual = 4.44416e-17, No Iterations 1
DICPCG:  Solving for T, Initial residual = 7.43121e-15, Final residual = 7.43121e-15, No Iterations 0
DICPCG:  Solving for T, Initial residual = 7.43121e-15, Final residual = 7.43121e-15, No Iterations 0
nonDiag.size()=8

U.size()=8

F.size()=8

F = normalisedF;

Selected 0 cells for refinement out of 8.
Selected 0 split points out of a possible 0.
mesh updated
Time = 0.245

DICPCG:  Solving for T, Initial residual = 0.809387, Final residual = 9.09943e-17, No Iterations 1
DICPCG:  Solving for T, Initial residual = 7.27955e-15, Final residual = 7.27955e-15, No Iterations 0
DICPCG:  Solving for T, Initial residual = 7.27955e-15, Final residual = 7.27955e-15, No Iterations 0
nonDiag.size()=8

U.size()=8

F.size()=8

F = normalisedF;

Selected 0 cells for refinement out of 8.
Selected 0 split points out of a possible 0.
mesh updated
Time = 0.25

DICPCG:  Solving for T, Initial residual = 0.806186, Final residual = 1.10225e-16, No Iterations 1
DICPCG:  Solving for T, Initial residual = 0, Final residual = 0, No Iterations 0
DICPCG:  Solving for T, Initial residual = 0, Final residual = 0, No Iterations 0
nonDiag.size()=8

U.size()=8

F.size()=8

F = normalisedF;

Selected 0 cells for refinement out of 8.
Selected 0 split points out of a possible 0.
mesh updated
Time = 0.255

DICPCG:  Solving for T, Initial residual = 0.803009, Final residual = 1.2849e-16, No Iterations 1
DICPCG:  Solving for T, Initial residual = 3.49704e-15, Final residual = 3.49704e-15, No Iterations 0
DICPCG:  Solving for T, Initial residual = 3.49704e-15, Final residual = 3.49704e-15, No Iterations 0
nonDiag.size()=8

U.size()=8

F.size()=8

F = normalisedF;

Selected 0 cells for refinement out of 8.
Selected 0 split points out of a possible 0.
mesh updated
Time = 0.26

DICPCG:  Solving for T, Initial residual = 0.799858, Final residual = 4.3744e-17, No Iterations 1
DICPCG:  Solving for T, Initial residual = 6.85958e-15, Final residual = 6.85958e-15, No Iterations 0
DICPCG:  Solving for T, Initial residual = 6.85958e-15, Final residual = 6.85958e-15, No Iterations 0
nonDiag.size()=8

U.size()=8

F.size()=8

F = normalisedF;

Selected 0 cells for refinement out of 8.
Selected 0 split points out of a possible 0.
mesh updated
Time = 0.265

DICPCG:  Solving for T, Initial residual = 0.796731, Final residual = 8.7146e-17, No Iterations 1
DICPCG:  Solving for T, Initial residual = 6.73015e-15, Final residual = 6.73015e-15, No Iterations 0
DICPCG:  Solving for T, Initial residual = 6.73015e-15, Final residual = 6.73015e-15, No Iterations 0
nonDiag.size()=8

U.size()=8

F.size()=8

F = normalisedF;

Selected 0 cells for refinement out of 8.
Selected 0 split points out of a possible 0.
mesh updated
Time = 0.27

DICPCG:  Solving for T, Initial residual = 0.793629, Final residual = 8.68067e-17, No Iterations 1
DICPCG:  Solving for T, Initial residual = 1.3211e-14, Final residual = 1.3211e-14, No Iterations 0
DICPCG:  Solving for T, Initial residual = 1.3211e-14, Final residual = 1.3211e-14, No Iterations 0
nonDiag.size()=8

U.size()=8

F.size()=8

F = normalisedF;

Selected 0 cells for refinement out of 8.
Selected 0 split points out of a possible 0.
mesh updated
Time = 0.275

DICPCG:  Solving for T, Initial residual = 0.790551, Final residual = 1.08088e-16, No Iterations 1
DICPCG:  Solving for T, Initial residual = 6.48542e-15, Final residual = 6.48542e-15, No Iterations 0
DICPCG:  Solving for T, Initial residual = 6.48542e-15, Final residual = 6.48542e-15, No Iterations 0
nonDiag.size()=8

U.size()=8

F.size()=8

F = normalisedF;

Selected 0 cells for refinement out of 8.
Selected 0 split points out of a possible 0.
mesh updated
Time = 0.28

DICPCG:  Solving for T, Initial residual = 0.787496, Final residual = 4.3068e-17, No Iterations 1
DICPCG:  Solving for T, Initial residual = 1.27392e-14, Final residual = 1.27392e-14, No Iterations 0
DICPCG:  Solving for T, Initial residual = 1.27392e-14, Final residual = 1.27392e-14, No Iterations 0
nonDiag.size()=8

U.size()=8

F.size()=8

F = normalisedF;

Selected 0 cells for refinement out of 8.
Selected 0 split points out of a possible 0.
mesh updated
Time = 0.285

DICPCG:  Solving for T, Initial residual = 0.784465, Final residual = 8.81925e-17, No Iterations 1
DICPCG:  Solving for T, Initial residual = 6.25786e-15, Final residual = 6.25786e-15, No Iterations 0
DICPCG:  Solving for T, Initial residual = 6.25786e-15, Final residual = 6.25786e-15, No Iterations 0
nonDiag.size()=8

U.size()=8

F.size()=8

F = normalisedF;

Selected 0 cells for refinement out of 8.
Selected 0 split points out of a possible 0.
mesh updated
Time = 0.29

DICPCG:  Solving for T, Initial residual = 0.781458, Final residual = 1.28213e-16, No Iterations 1
DICPCG:  Solving for T, Initial residual = 0, Final residual = 0, No Iterations 0
DICPCG:  Solving for T, Initial residual = 0, Final residual = 0, No Iterations 0
nonDiag.size()=8

U.size()=8

F.size()=8

F = normalisedF;

Selected 0 cells for refinement out of 8.
Selected 0 split points out of a possible 0.
mesh updated
Time = 0.295

DICPCG:  Solving for T, Initial residual = 0.778473, Final residual = 8.51489e-17, No Iterations 1
DICPCG:  Solving for T, Initial residual = 6.04573e-15, Final residual = 6.04573e-15, No Iterations 0
DICPCG:  Solving for T, Initial residual = 6.04573e-15, Final residual = 6.04573e-15, No Iterations 0
nonDiag.size()=8

U.size()=8

F.size()=8

F = normalisedF;

Selected 0 cells for refinement out of 8.
Selected 0 split points out of a possible 0.
mesh updated
Time = 0.3

DICPCG:  Solving for T, Initial residual = 0.775511, Final residual = 1.06031e-16, No Iterations 1
DICPCG:  Solving for T, Initial residual = 0, Final residual = 0, No Iterations 0
DICPCG:  Solving for T, Initial residual = 0, Final residual = 0, No Iterations 0
nonDiag.size()=8

U.size()=8

F.size()=8

F = normalisedF;

Selected 0 cells for refinement out of 8.
Selected 0 split points out of a possible 0.
mesh updated
Time = 0.305

DICPCG:  Solving for T, Initial residual = 0.772571, Final residual = 8.45034e-17, No Iterations 1
DICPCG:  Solving for T, Initial residual = 0, Final residual = 0, No Iterations 0
DICPCG:  Solving for T, Initial residual = 0, Final residual = 0, No Iterations 0
nonDiag.size()=8

U.size()=8

F.size()=8

F = normalisedF;

Selected 0 cells for refinement out of 8.
Selected 0 split points out of a possible 0.
mesh updated
Time = 0.31

DICPCG:  Solving for T, Initial residual = 0.769654, Final residual = 4.20922e-17, No Iterations 1
DICPCG:  Solving for T, Initial residual = 5.75319e-15, Final residual = 5.75319e-15, No Iterations 0
DICPCG:  Solving for T, Initial residual = 5.75319e-15, Final residual = 5.75319e-15, No Iterations 0
nonDiag.size()=8

U.size()=8

F.size()=8

F = normalisedF;

Selected 0 cells for refinement out of 8.
Selected 0 split points out of a possible 0.
mesh updated
Time = 0.315

DICPCG:  Solving for T, Initial residual = 0.766759, Final residual = 6.29007e-17, No Iterations 1
DICPCG:  Solving for T, Initial residual = 1.69856e-14, Final residual = 1.69856e-14, No Iterations 0
DICPCG:  Solving for T, Initial residual = 1.69856e-14, Final residual = 1.69856e-14, No Iterations 0
nonDiag.size()=8

U.size()=8

F.size()=8

F = normalisedF;

Selected 0 cells for refinement out of 8.
Selected 0 split points out of a possible 0.
mesh updated
Time = 0.32

DICPCG:  Solving for T, Initial residual = 0.763885, Final residual = 1.04442e-16, No Iterations 1
DICPCG:  Solving for T, Initial residual = 0, Final residual = 0, No Iterations 0
DICPCG:  Solving for T, Initial residual = 0, Final residual = 0, No Iterations 0
nonDiag.size()=8

U.size()=8

F.size()=8

F = normalisedF;

Selected 0 cells for refinement out of 8.
Selected 0 split points out of a possible 0.
mesh updated
Time = 0.325

DICPCG:  Solving for T, Initial residual = 0.761033, Final residual = 1.46404e-16, No Iterations 1
DICPCG:  Solving for T, Initial residual = 1.09753e-14, Final residual = 1.09753e-14, No Iterations 0
DICPCG:  Solving for T, Initial residual = 1.09753e-14, Final residual = 1.09753e-14, No Iterations 0
nonDiag.size()=8

U.size()=8

F.size()=8

F = normalisedF;

Selected 0 cells for refinement out of 8.
Selected 0 split points out of a possible 0.
mesh updated
Time = 0.33

DICPCG:  Solving for T, Initial residual = 0.758202, Final residual = 4.14658e-17, No Iterations 1
DICPCG:  Solving for T, Initial residual = 2.16181e-14, Final residual = 2.16181e-14, No Iterations 0
DICPCG:  Solving for T, Initial residual = 2.16181e-14, Final residual = 2.16181e-14, No Iterations 0
nonDiag.size()=8

U.size()=8

F.size()=8

F = normalisedF;

Selected 0 cells for refinement out of 8.
Selected 0 split points out of a possible 0.
mesh updated
Time = 0.335

DICPCG:  Solving for T, Initial residual = 0.755392, Final residual = 4.13122e-17, No Iterations 1
DICPCG:  Solving for T, Initial residual = 1.06477e-14, Final residual = 1.06477e-14, No Iterations 0
DICPCG:  Solving for T, Initial residual = 1.06477e-14, Final residual = 1.06477e-14, No Iterations 0
nonDiag.size()=8

U.size()=8

F.size()=8

F = normalisedF;

Selected 0 cells for refinement out of 8.
Selected 0 split points out of a possible 0.
mesh updated
Time = 0.34

DICPCG:  Solving for T, Initial residual = 0.752602, Final residual = 6.17394e-17, No Iterations 1
DICPCG:  Solving for T, Initial residual = 0, Final residual = 0, No Iterations 0
DICPCG:  Solving for T, Initial residual = 0, Final residual = 0, No Iterations 0
nonDiag.size()=8

U.size()=8

F.size()=8

F = normalisedF;

Selected 0 cells for refinement out of 8.
Selected 0 split points out of a possible 0.
mesh updated
Time = 0.345

DICPCG:  Solving for T, Initial residual = 0.749834, Final residual = 4.10082e-17, No Iterations 1
DICPCG:  Solving for T, Initial residual = 1.03391e-14, Final residual = 1.03391e-14, No Iterations 0
DICPCG:  Solving for T, Initial residual = 1.03391e-14, Final residual = 1.03391e-14, No Iterations 0
nonDiag.size()=8

U.size()=8

F.size()=8

F = normalisedF;

Selected 0 cells for refinement out of 8.
Selected 0 split points out of a possible 0.
mesh updated
Time = 0.35

DICPCG:  Solving for T, Initial residual = 0.747085, Final residual = 6.62145e-17, No Iterations 1
DICPCG:  Solving for T, Initial residual = 2.03827e-14, Final residual = 2.03827e-14, No Iterations 0
DICPCG:  Solving for T, Initial residual = 2.03827e-14, Final residual = 2.03827e-14, No Iterations 0
nonDiag.size()=8

U.size()=8

F.size()=8

F = normalisedF;

Selected 0 cells for refinement out of 8.
Selected 0 split points out of a possible 0.
mesh updated
Time = 0.355

DICPCG:  Solving for T, Initial residual = 0.744357, Final residual = 1.22126e-16, No Iterations 1
DICPCG:  Solving for T, Initial residual = 1.00478e-14, Final residual = 1.00478e-14, No Iterations 0
DICPCG:  Solving for T, Initial residual = 1.00478e-14, Final residual = 1.00478e-14, No Iterations 0
nonDiag.size()=8

U.size()=8

F.size()=8

F = normalisedF;

Selected 0 cells for refinement out of 8.
Selected 0 split points out of a possible 0.
mesh updated
Time = 0.36

DICPCG:  Solving for T, Initial residual = 0.741648, Final residual = 1.18671e-16, No Iterations 1
DICPCG:  Solving for T, Initial residual = 9.90828e-15, Final residual = 9.90828e-15, No Iterations 0
DICPCG:  Solving for T, Initial residual = 9.90828e-15, Final residual = 9.90828e-15, No Iterations 0
nonDiag.size()=8

U.size()=8

F.size()=8

F = normalisedF;

Selected 0 cells for refinement out of 8.
Selected 0 split points out of a possible 0.
mesh updated
Time = 0.365

DICPCG:  Solving for T, Initial residual = 0.738959, Final residual = 6.06202e-17, No Iterations 1
DICPCG:  Solving for T, Initial residual = 1.95451e-14, Final residual = 1.95451e-14, No Iterations 0
DICPCG:  Solving for T, Initial residual = 1.95451e-14, Final residual = 1.95451e-14, No Iterations 0
nonDiag.size()=8

U.size()=8

F.size()=8

F = normalisedF;

Selected 0 cells for refinement out of 8.
Selected 0 split points out of a possible 0.
mesh updated
Time = 0.37

DICPCG:  Solving for T, Initial residual = 0.73629, Final residual = 1.20802e-16, No Iterations 1
DICPCG:  Solving for T, Initial residual = 0, Final residual = 0, No Iterations 0
DICPCG:  Solving for T, Initial residual = 0, Final residual = 0, No Iterations 0
nonDiag.size()=8

U.size()=8

F.size()=8

F = normalisedF;

Selected 0 cells for refinement out of 8.
Selected 0 split points out of a possible 0.
mesh updated
Time = 0.375

DICPCG:  Solving for T, Initial residual = 0.73364, Final residual = 8.02451e-17, No Iterations 1
DICPCG:  Solving for T, Initial residual = 9.51195e-15, Final residual = 9.51195e-15, No Iterations 0
DICPCG:  Solving for T, Initial residual = 9.51195e-15, Final residual = 9.51195e-15, No Iterations 0
nonDiag.size()=8

U.size()=8

F.size()=8

F = normalisedF;

Selected 0 cells for refinement out of 8.
Selected 0 split points out of a possible 0.
mesh updated
Time = 0.38

DICPCG:  Solving for T, Initial residual = 0.731008, Final residual = 3.99786e-17, No Iterations 1
DICPCG:  Solving for T, Initial residual = 9.38679e-15, Final residual = 9.38679e-15, No Iterations 0
DICPCG:  Solving for T, Initial residual = 9.38679e-15, Final residual = 9.38679e-15, No Iterations 0
nonDiag.size()=8

U.size()=8

F.size()=8

F = normalisedF;

Selected 0 cells for refinement out of 8.
Selected 0 split points out of a possible 0.
mesh updated
Time = 0.385

DICPCG:  Solving for T, Initial residual = 0.728396, Final residual = 1.19507e-16, No Iterations 1
DICPCG:  Solving for T, Initial residual = 9.26488e-15, Final residual = 9.26488e-15, No Iterations 0
DICPCG:  Solving for T, Initial residual = 9.26488e-15, Final residual = 9.26488e-15, No Iterations 0
nonDiag.size()=8

U.size()=8

F.size()=8

F = normalisedF;

Selected 0 cells for refinement out of 8.
Selected 0 split points out of a possible 0.
mesh updated
Time = 0.39

DICPCG:  Solving for T, Initial residual = 0.725802, Final residual = 5.95409e-17, No Iterations 1
DICPCG:  Solving for T, Initial residual = 1.82922e-14, Final residual = 1.82922e-14, No Iterations 0
DICPCG:  Solving for T, Initial residual = 1.82922e-14, Final residual = 1.82922e-14, No Iterations 0
nonDiag.size()=8

U.size()=8

F.size()=8

F = normalisedF;

Selected 0 cells for refinement out of 8.
Selected 0 split points out of a possible 0.
mesh updated
Time = 0.395

DICPCG:  Solving for T, Initial residual = 0.723227, Final residual = 1.18659e-16, No Iterations 1
DICPCG:  Solving for T, Initial residual = 1.80607e-14, Final residual = 1.80607e-14, No Iterations 0
DICPCG:  Solving for T, Initial residual = 1.80607e-14, Final residual = 1.80607e-14, No Iterations 0
nonDiag.size()=8

U.size()=8

F.size()=8

F = normalisedF;

Selected 0 cells for refinement out of 8.
Selected 0 split points out of a possible 0.
mesh updated
Time = 0.4

DICPCG:  Solving for T, Initial residual = 0.72067, Final residual = 4.67262e-17, No Iterations 1
DICPCG:  Solving for T, Initial residual = 0, Final residual = 0, No Iterations 0
DICPCG:  Solving for T, Initial residual = 0, Final residual = 0, No Iterations 0
nonDiag.size()=8

U.size()=8

F.size()=8

F = normalisedF;

Selected 0 cells for refinement out of 8.
Selected 0 split points out of a possible 0.
mesh updated
Time = 0.405

DICPCG:  Solving for T, Initial residual = 0.71813, Final residual = 1.17823e-16, No Iterations 1
DICPCG:  Solving for T, Initial residual = 0, Final residual = 0, No Iterations 0
DICPCG:  Solving for T, Initial residual = 0, Final residual = 0, No Iterations 0
nonDiag.size()=8

U.size()=8

F.size()=8

F = normalisedF;

Selected 0 cells for refinement out of 8.
Selected 0 split points out of a possible 0.
mesh updated
Time = 0.41

DICPCG:  Solving for T, Initial residual = 0.715609, Final residual = 8.04514e-17, No Iterations 1
DICPCG:  Solving for T, Initial residual = 8.69995e-15, Final residual = 8.69995e-15, No Iterations 0
DICPCG:  Solving for T, Initial residual = 8.69995e-15, Final residual = 8.69995e-15, No Iterations 0
nonDiag.size()=8

U.size()=8

F.size()=8

F = normalisedF;

Selected 0 cells for refinement out of 8.
Selected 0 split points out of a possible 0.
mesh updated
Time = 0.415

DICPCG:  Solving for T, Initial residual = 0.713105, Final residual = 1.36498e-16, No Iterations 1
DICPCG:  Solving for T, Initial residual = 0, Final residual = 0, No Iterations 0
DICPCG:  Solving for T, Initial residual = 0, Final residual = 0, No Iterations 0
nonDiag.size()=8

U.size()=8

F.size()=8

F = normalisedF;

Selected 0 cells for refinement out of 8.
Selected 0 split points out of a possible 0.
mesh updated
Time = 0.42

DICPCG:  Solving for T, Initial residual = 0.710619, Final residual = 9.71589e-17, No Iterations 1
DICPCG:  Solving for T, Initial residual = 1.69856e-14, Final residual = 1.69856e-14, No Iterations 0
DICPCG:  Solving for T, Initial residual = 1.69856e-14, Final residual = 1.69856e-14, No Iterations 0
nonDiag.size()=8

U.size()=8

F.size()=8

F = normalisedF;

Selected 0 cells for refinement out of 8.
Selected 0 split points out of a possible 0.
mesh updated
Time = 0.425

DICPCG:  Solving for T, Initial residual = 0.70815, Final residual = 7.7457e-17, No Iterations 1
DICPCG:  Solving for T, Initial residual = 8.39289e-15, Final residual = 8.39289e-15, No Iterations 0
DICPCG:  Solving for T, Initial residual = 8.39289e-15, Final residual = 8.39289e-15, No Iterations 0
nonDiag.size()=8

U.size()=8

F.size()=8

F = normalisedF;

Selected 0 cells for refinement out of 8.
Selected 0 split points out of a possible 0.
mesh updated
Time = 0.43

DICPCG:  Solving for T, Initial residual = 0.705698, Final residual = 5.78916e-17, No Iterations 1
DICPCG:  Solving for T, Initial residual = 8.2953e-15, Final residual = 8.2953e-15, No Iterations 0
DICPCG:  Solving for T, Initial residual = 8.2953e-15, Final residual = 8.2953e-15, No Iterations 0
nonDiag.size()=8

U.size()=8

F.size()=8

F = normalisedF;

Selected 0 cells for refinement out of 8.
Selected 0 split points out of a possible 0.
mesh updated
Time = 0.435

DICPCG:  Solving for T, Initial residual = 0.703263, Final residual = 1.10388e-16, No Iterations 1
DICPCG:  Solving for T, Initial residual = 8.19995e-15, Final residual = 8.19995e-15, No Iterations 0
DICPCG:  Solving for T, Initial residual = 8.19995e-15, Final residual = 8.19995e-15, No Iterations 0
nonDiag.size()=8

U.size()=8

F.size()=8

F = normalisedF;

Selected 0 cells for refinement out of 8.
Selected 0 split points out of a possible 0.
mesh updated
Time = 0.44

DICPCG:  Solving for T, Initial residual = 0.700845, Final residual = 5.74935e-17, No Iterations 1
DICPCG:  Solving for T, Initial residual = 0, Final residual = 0, No Iterations 0
DICPCG:  Solving for T, Initial residual = 0, Final residual = 0, No Iterations 0
nonDiag.size()=8

U.size()=8

F.size()=8

F = normalisedF;

Selected 0 cells for refinement out of 8.
Selected 0 split points out of a possible 0.
mesh updated
Time = 0.445

DICPCG:  Solving for T, Initial residual = 0.698443, Final residual = 7.63953e-17, No Iterations 1
DICPCG:  Solving for T, Initial residual = 8.01568e-15, Final residual = 8.01568e-15, No Iterations 0
DICPCG:  Solving for T, Initial residual = 8.01568e-15, Final residual = 8.01568e-15, No Iterations 0
nonDiag.size()=8

U.size()=8

F.size()=8

F = normalisedF;

Selected 0 cells for refinement out of 8.
Selected 0 split points out of a possible 0.
mesh updated
Time = 0.45

DICPCG:  Solving for T, Initial residual = 0.696058, Final residual = 1.11376e-16, No Iterations 1
DICPCG:  Solving for T, Initial residual = 1.58532e-14, Final residual = 1.58532e-14, No Iterations 0
DICPCG:  Solving for T, Initial residual = 1.58532e-14, Final residual = 1.58532e-14, No Iterations 0
nonDiag.size()=8

U.size()=8

F.size()=8

F = normalisedF;

Selected 0 cells for refinement out of 8.
Selected 0 split points out of a possible 0.
mesh updated
Time = 0.455

DICPCG:  Solving for T, Initial residual = 0.693689, Final residual = 1.32782e-16, No Iterations 1
DICPCG:  Solving for T, Initial residual = 0, Final residual = 0, No Iterations 0
DICPCG:  Solving for T, Initial residual = 0, Final residual = 0, No Iterations 0
nonDiag.size()=8

U.size()=8

F.size()=8

F = normalisedF;

Selected 0 cells for refinement out of 8.
Selected 0 split points out of a possible 0.
mesh updated
Time = 0.46

DICPCG:  Solving for T, Initial residual = 0.691336, Final residual = 7.5618e-17, No Iterations 1
DICPCG:  Solving for T, Initial residual = 1.55086e-14, Final residual = 1.55086e-14, No Iterations 0
DICPCG:  Solving for T, Initial residual = 1.55086e-14, Final residual = 1.55086e-14, No Iterations 0
nonDiag.size()=8

U.size()=8

F.size()=8

F = normalisedF;

Selected 0 cells for refinement out of 8.
Selected 0 split points out of a possible 0.
mesh updated
Time = 0.465

DICPCG:  Solving for T, Initial residual = 0.688999, Final residual = 1.13043e-16, No Iterations 1
DICPCG:  Solving for T, Initial residual = 0, Final residual = 0, No Iterations 0
DICPCG:  Solving for T, Initial residual = 0, Final residual = 0, No Iterations 0
nonDiag.size()=8

U.size()=8

F.size()=8

F = normalisedF;

Selected 0 cells for refinement out of 8.
Selected 0 split points out of a possible 0.
mesh updated
Time = 0.47

DICPCG:  Solving for T, Initial residual = 0.686678, Final residual = 3.75542e-17, No Iterations 1
DICPCG:  Solving for T, Initial residual = 1.51786e-14, Final residual = 1.51786e-14, No Iterations 0
DICPCG:  Solving for T, Initial residual = 1.51786e-14, Final residual = 1.51786e-14, No Iterations 0
nonDiag.size()=8

U.size()=8

F.size()=8

F = normalisedF;

Selected 0 cells for refinement out of 8.
Selected 0 split points out of a possible 0.
mesh updated
Time = 0.475

DICPCG:  Solving for T, Initial residual = 0.684372, Final residual = 7.48562e-17, No Iterations 1
DICPCG:  Solving for T, Initial residual = 0, Final residual = 0, No Iterations 0
DICPCG:  Solving for T, Initial residual = 0, Final residual = 0, No Iterations 0
nonDiag.size()=8

U.size()=8

F.size()=8

F = normalisedF;

Selected 0 cells for refinement out of 8.
Selected 0 split points out of a possible 0.
mesh updated
Time = 0.48

DICPCG:  Solving for T, Initial residual = 0.682082, Final residual = 1.3056e-16, No Iterations 1
DICPCG:  Solving for T, Initial residual = 7.43121e-15, Final residual = 7.43121e-15, No Iterations 0
DICPCG:  Solving for T, Initial residual = 7.43121e-15, Final residual = 7.43121e-15, No Iterations 0
nonDiag.size()=8

U.size()=8

F.size()=8

F = normalisedF;

Selected 0 cells for refinement out of 8.
Selected 0 split points out of a possible 0.
mesh updated
Time = 0.485

DICPCG:  Solving for T, Initial residual = 0.679807, Final residual = 1.06706e-16, No Iterations 1
DICPCG:  Solving for T, Initial residual = 7.3546e-15, Final residual = 7.3546e-15, No Iterations 0
DICPCG:  Solving for T, Initial residual = 7.3546e-15, Final residual = 7.3546e-15, No Iterations 0
nonDiag.size()=8

U.size()=8

F.size()=8

F = normalisedF;

Selected 0 cells for refinement out of 8.
Selected 0 split points out of a possible 0.
mesh updated
Time = 0.49

DICPCG:  Solving for T, Initial residual = 0.677547, Final residual = 5.55823e-17, No Iterations 1
DICPCG:  Solving for T, Initial residual = 7.27955e-15, Final residual = 7.27955e-15, No Iterations 0
DICPCG:  Solving for T, Initial residual = 7.27955e-15, Final residual = 7.27955e-15, No Iterations 0
nonDiag.size()=8

U.size()=8

F.size()=8

F = normalisedF;

Selected 0 cells for refinement out of 8.
Selected 0 split points out of a possible 0.
mesh updated
Time = 0.495

DICPCG:  Solving for T, Initial residual = 0.675302, Final residual = 1.10796e-16, No Iterations 1
DICPCG:  Solving for T, Initial residual = 7.20602e-15, Final residual = 7.20602e-15, No Iterations 0
DICPCG:  Solving for T, Initial residual = 7.20602e-15, Final residual = 7.20602e-15, No Iterations 0
nonDiag.size()=8

U.size()=8

F.size()=8

F = normalisedF;

Selected 0 cells for refinement out of 8.
Selected 0 split points out of a possible 0.
mesh updated
Time = 0.5

DICPCG:  Solving for T, Initial residual = 0.673072, Final residual = 3.68101e-17, No Iterations 1
DICPCG:  Solving for T, Initial residual = 0, Final residual = 0, No Iterations 0
DICPCG:  Solving for T, Initial residual = 0, Final residual = 0, No Iterations 0
nonDiag.size()=8

U.size()=8

F.size()=8

F = normalisedF;

Selected 0 cells for refinement out of 8.
Selected 0 split points out of a possible 0.
mesh updated
Time = 0.505

DICPCG:  Solving for T, Initial residual = 0.670857, Final residual = 9.17224e-17, No Iterations 1
DICPCG:  Solving for T, Initial residual = 7.06332e-15, Final residual = 7.06332e-15, No Iterations 0
DICPCG:  Solving for T, Initial residual = 7.06332e-15, Final residual = 7.06332e-15, No Iterations 0
nonDiag.size()=8

U.size()=8

F.size()=8

F = normalisedF;

Selected 0 cells for refinement out of 8.
Selected 0 split points out of a possible 0.
mesh updated
Time = 0.51

DICPCG:  Solving for T, Initial residual = 0.668656, Final residual = 1.09706e-16, No Iterations 1
DICPCG:  Solving for T, Initial residual = 1.39882e-14, Final residual = 1.39882e-14, No Iterations 0
DICPCG:  Solving for T, Initial residual = 1.39882e-14, Final residual = 1.39882e-14, No Iterations 0
nonDiag.size()=8

U.size()=8

F.size()=8

F = normalisedF;

Selected 0 cells for refinement out of 8.
Selected 0 split points out of a possible 0.
mesh updated
Time = 0.515

DICPCG:  Solving for T, Initial residual = 0.666469, Final residual = 3.6449e-17, No Iterations 1
DICPCG:  Solving for T, Initial residual = 0, Final residual = 0, No Iterations 0
DICPCG:  Solving for T, Initial residual = 0, Final residual = 0, No Iterations 0
nonDiag.size()=8

U.size()=8

F.size()=8

F = normalisedF;

Selected 0 cells for refinement out of 8.
Selected 0 split points out of a possible 0.
mesh updated
Time = 0.52

DICPCG:  Solving for T, Initial residual = 0.664297, Final residual = 3.63302e-17, No Iterations 1
DICPCG:  Solving for T, Initial residual = 1.37191e-14, Final residual = 1.37191e-14, No Iterations 0
DICPCG:  Solving for T, Initial residual = 1.37191e-14, Final residual = 1.37191e-14, No Iterations 0
nonDiag.size()=8

U.size()=8

F.size()=8

F = normalisedF;

Selected 0 cells for refinement out of 8.
Selected 0 split points out of a possible 0.
mesh updated
Time = 0.525

DICPCG:  Solving for T, Initial residual = 0.662139, Final residual = 7.24244e-17, No Iterations 1
DICPCG:  Solving for T, Initial residual = 6.79424e-15, Final residual = 6.79424e-15, No Iterations 0
DICPCG:  Solving for T, Initial residual = 6.79424e-15, Final residual = 6.79424e-15, No Iterations 0
nonDiag.size()=8

U.size()=8

F.size()=8

F = normalisedF;

Selected 0 cells for refinement out of 8.
Selected 0 split points out of a possible 0.
mesh updated
Time = 0.53

DICPCG:  Solving for T, Initial residual = 0.659995, Final residual = 5.41424e-17, No Iterations 1
DICPCG:  Solving for T, Initial residual = 0, Final residual = 0, No Iterations 0
DICPCG:  Solving for T, Initial residual = 0, Final residual = 0, No Iterations 0
nonDiag.size()=8

U.size()=8

F.size()=8

F = normalisedF;

Selected 0 cells for refinement out of 8.
Selected 0 split points out of a possible 0.
mesh updated
Time = 0.535

DICPCG:  Solving for T, Initial residual = 0.657865, Final residual = 3.59784e-17, No Iterations 1
DICPCG:  Solving for T, Initial residual = 1.33345e-14, Final residual = 1.33345e-14, No Iterations 0
DICPCG:  Solving for T, Initial residual = 1.33345e-14, Final residual = 1.33345e-14, No Iterations 0
nonDiag.size()=8

U.size()=8

F.size()=8

F = normalisedF;

Selected 0 cells for refinement out of 8.
Selected 0 split points out of a possible 0.
mesh updated
Time = 0.54

DICPCG:  Solving for T, Initial residual = 0.655748, Final residual = 3.58627e-17, No Iterations 1
DICPCG:  Solving for T, Initial residual = 0, Final residual = 0, No Iterations 0
DICPCG:  Solving for T, Initial residual = 0, Final residual = 0, No Iterations 0
nonDiag.size()=8

U.size()=8

F.size()=8

F = normalisedF;

Selected 0 cells for refinement out of 8.
Selected 0 split points out of a possible 0.
mesh updated
Time = 0.545

DICPCG:  Solving for T, Initial residual = 0.653645, Final residual = 7.14954e-17, No Iterations 1
DICPCG:  Solving for T, Initial residual = 1.30898e-14, Final residual = 1.30898e-14, No Iterations 0
DICPCG:  Solving for T, Initial residual = 1.30898e-14, Final residual = 1.30898e-14, No Iterations 0
nonDiag.size()=8

U.size()=8

F.size()=8

F = normalisedF;

Selected 0 cells for refinement out of 8.
Selected 0 split points out of a possible 0.
mesh updated
Time = 0.55

DICPCG:  Solving for T, Initial residual = 0.651556, Final residual = 1.04256e-16, No Iterations 1
DICPCG:  Solving for T, Initial residual = 6.48542e-15, Final residual = 6.48542e-15, No Iterations 0
DICPCG:  Solving for T, Initial residual = 6.48542e-15, Final residual = 6.48542e-15, No Iterations 0
nonDiag.size()=8

U.size()=8

F.size()=8

F = normalisedF;

Selected 0 cells for refinement out of 8.
Selected 0 split points out of a possible 0.
mesh updated
Time = 0.555

DICPCG:  Solving for T, Initial residual = 0.64948, Final residual = 1.24319e-16, No Iterations 1
DICPCG:  Solving for T, Initial residual = 6.42699e-15, Final residual = 6.42699e-15, No Iterations 0
DICPCG:  Solving for T, Initial residual = 6.42699e-15, Final residual = 6.42699e-15, No Iterations 0
nonDiag.size()=8

U.size()=8

F.size()=8

F = normalisedF;

Selected 0 cells for refinement out of 8.
Selected 0 split points out of a possible 0.
mesh updated
Time = 0.56

DICPCG:  Solving for T, Initial residual = 0.647417, Final residual = 1.06221e-16, No Iterations 1
DICPCG:  Solving for T, Initial residual = 0, Final residual = 0, No Iterations 0
DICPCG:  Solving for T, Initial residual = 0, Final residual = 0, No Iterations 0
nonDiag.size()=8

U.size()=8

F.size()=8

F = normalisedF;

Selected 0 cells for refinement out of 8.
Selected 0 split points out of a possible 0.
mesh updated
Time = 0.565

DICPCG:  Solving for T, Initial residual = 0.645367, Final residual = 5.55619e-17, No Iterations 1
DICPCG:  Solving for T, Initial residual = 0, Final residual = 0, No Iterations 0
DICPCG:  Solving for T, Initial residual = 0, Final residual = 0, No Iterations 0
nonDiag.size()=8

U.size()=8

F.size()=8

F = normalisedF;

Selected 0 cells for refinement out of 8.
Selected 0 split points out of a possible 0.
mesh updated
Time = 0.57

DICPCG:  Solving for T, Initial residual = 0.64333, Final residual = 1.21476e-16, No Iterations 1
DICPCG:  Solving for T, Initial residual = 0, Final residual = 0, No Iterations 0
DICPCG:  Solving for T, Initial residual = 0, Final residual = 0, No Iterations 0
nonDiag.size()=8

U.size()=8

F.size()=8

F = normalisedF;

Selected 0 cells for refinement out of 8.
Selected 0 split points out of a possible 0.
mesh updated
Time = 0.575

DICPCG:  Solving for T, Initial residual = 0.641305, Final residual = 7.01456e-17, No Iterations 1
DICPCG:  Solving for T, Initial residual = 0, Final residual = 0, No Iterations 0
DICPCG:  Solving for T, Initial residual = 0, Final residual = 0, No Iterations 0
nonDiag.size()=8

U.size()=8

F.size()=8

F = normalisedF;

Selected 0 cells for refinement out of 8.
Selected 0 split points out of a possible 0.
mesh updated
Time = 0.58

DICPCG:  Solving for T, Initial residual = 0.639294, Final residual = 5.24442e-17, No Iterations 1
DICPCG:  Solving for T, Initial residual = 0, Final residual = 0, No Iterations 0
DICPCG:  Solving for T, Initial residual = 0, Final residual = 0, No Iterations 0
nonDiag.size()=8

U.size()=8

F.size()=8

F = normalisedF;

Selected 0 cells for refinement out of 8.
Selected 0 split points out of a possible 0.
mesh updated
Time = 0.585

DICPCG:  Solving for T, Initial residual = 0.637295, Final residual = 1.05173e-16, No Iterations 1
DICPCG:  Solving for T, Initial residual = 0, Final residual = 0, No Iterations 0
DICPCG:  Solving for T, Initial residual = 0, Final residual = 0, No Iterations 0
nonDiag.size()=8

U.size()=8

F.size()=8

F = normalisedF;

Selected 0 cells for refinement out of 8.
Selected 0 split points out of a possible 0.
mesh updated
Time = 0.59

DICPCG:  Solving for T, Initial residual = 0.635308, Final residual = 6.94897e-17, No Iterations 1
DICPCG:  Solving for T, Initial residual = 6.04573e-15, Final residual = 6.04573e-15, No Iterations 0
DICPCG:  Solving for T, Initial residual = 6.04573e-15, Final residual = 6.04573e-15, No Iterations 0
nonDiag.size()=8

U.size()=8

F.size()=8

F = normalisedF;

Selected 0 cells for refinement out of 8.
Selected 0 split points out of a possible 0.
mesh updated
Time = 0.595

DICPCG:  Solving for T, Initial residual = 0.633334, Final residual = 5.19553e-17, No Iterations 1
DICPCG:  Solving for T, Initial residual = 1.19898e-14, Final residual = 1.19898e-14, No Iterations 0
DICPCG:  Solving for T, Initial residual = 1.19898e-14, Final residual = 1.19898e-14, No Iterations 0
nonDiag.size()=8

U.size()=8

F.size()=8

F = normalisedF;

Selected 0 cells for refinement out of 8.
Selected 0 split points out of a possible 0.
mesh updated
Time = 0.6

DICPCG:  Solving for T, Initial residual = 0.631372, Final residual = 4.09364e-17, No Iterations 1
DICPCG:  Solving for T, Initial residual = 1.18899e-14, Final residual = 1.18899e-14, No Iterations 0
DICPCG:  Solving for T, Initial residual = 1.18899e-14, Final residual = 1.18899e-14, No Iterations 0
nonDiag.size()=8

U.size()=8

F.size()=8

F = normalisedF;

Selected 0 cells for refinement out of 8.
Selected 0 split points out of a possible 0.
mesh updated
Time = 0.605

DICPCG:  Solving for T, Initial residual = 0.629423, Final residual = 8.60574e-17, No Iterations 1
DICPCG:  Solving for T, Initial residual = 5.89583e-15, Final residual = 5.89583e-15, No Iterations 0
DICPCG:  Solving for T, Initial residual = 5.89583e-15, Final residual = 5.89583e-15, No Iterations 0
nonDiag.size()=8

U.size()=8

F.size()=8

F = normalisedF;

Selected 0 cells for refinement out of 8.
Selected 0 split points out of a possible 0.
mesh updated
Time = 0.61

DICPCG:  Solving for T, Initial residual = 0.627485, Final residual = 8.57924e-17, No Iterations 1
DICPCG:  Solving for T, Initial residual = 0, Final residual = 0, No Iterations 0
DICPCG:  Solving for T, Initial residual = 0, Final residual = 0, No Iterations 0
nonDiag.size()=8

U.size()=8

F.size()=8

F = normalisedF;

Selected 0 cells for refinement out of 8.
Selected 0 split points out of a possible 0.
mesh updated
Time = 0.615

DICPCG:  Solving for T, Initial residual = 0.625559, Final residual = 8.55291e-17, No Iterations 1
DICPCG:  Solving for T, Initial residual = 5.79996e-15, Final residual = 5.79996e-15, No Iterations 0
DICPCG:  Solving for T, Initial residual = 5.79996e-15, Final residual = 5.79996e-15, No Iterations 0
nonDiag.size()=8

U.size()=8

F.size()=8

F = normalisedF;

Selected 0 cells for refinement out of 8.
Selected 0 split points out of a possible 0.
mesh updated
Time = 0.62

DICPCG:  Solving for T, Initial residual = 0.623645, Final residual = 1.17759e-16, No Iterations 1
DICPCG:  Solving for T, Initial residual = 1.72596e-14, Final residual = 1.72596e-14, No Iterations 0
DICPCG:  Solving for T, Initial residual = 1.72596e-14, Final residual = 1.72596e-14, No Iterations 0
nonDiag.size()=8

U.size()=8

F.size()=8

F = normalisedF;

Selected 0 cells for refinement out of 8.
Selected 0 split points out of a possible 0.
mesh updated
Time = 0.625

DICPCG:  Solving for T, Initial residual = 0.621743, Final residual = 6.80058e-17, No Iterations 1
DICPCG:  Solving for T, Initial residual = 1.14143e-14, Final residual = 1.14143e-14, No Iterations 0
DICPCG:  Solving for T, Initial residual = 1.14143e-14, Final residual = 1.14143e-14, No Iterations 0
nonDiag.size()=8

U.size()=8

F.size()=8

F = normalisedF;

Selected 0 cells for refinement out of 8.
Selected 0 split points out of a possible 0.
mesh updated
Time = 0.63

DICPCG:  Solving for T, Initial residual = 0.619852, Final residual = 8.47488e-17, No Iterations 1
DICPCG:  Solving for T, Initial residual = 1.69856e-14, Final residual = 1.69856e-14, No Iterations 0
DICPCG:  Solving for T, Initial residual = 1.69856e-14, Final residual = 1.69856e-14, No Iterations 0
nonDiag.size()=8

U.size()=8

F.size()=8

F = normalisedF;

Selected 0 cells for refinement out of 8.
Selected 0 split points out of a possible 0.
mesh updated
Time = 0.635

DICPCG:  Solving for T, Initial residual = 0.617972, Final residual = 9.70006e-17, No Iterations 1
DICPCG:  Solving for T, Initial residual = 1.12346e-14, Final residual = 1.12346e-14, No Iterations 0
DICPCG:  Solving for T, Initial residual = 1.12346e-14, Final residual = 1.12346e-14, No Iterations 0
nonDiag.size()=8

U.size()=8

F.size()=8

F = normalisedF;

Selected 0 cells for refinement out of 8.
Selected 0 split points out of a possible 0.
mesh updated
Time = 0.64

DICPCG:  Solving for T, Initial residual = 0.616104, Final residual = 6.73891e-17, No Iterations 1
DICPCG:  Solving for T, Initial residual = 1.11468e-14, Final residual = 1.11468e-14, No Iterations 0
DICPCG:  Solving for T, Initial residual = 1.11468e-14, Final residual = 1.11468e-14, No Iterations 0
nonDiag.size()=8

U.size()=8

F.size()=8

F = normalisedF;

Selected 0 cells for refinement out of 8.
Selected 0 split points out of a possible 0.
mesh updated
Time = 0.645

DICPCG:  Solving for T, Initial residual = 0.614248, Final residual = 8.39826e-17, No Iterations 1
DICPCG:  Solving for T, Initial residual = 1.10604e-14, Final residual = 1.10604e-14, No Iterations 0
DICPCG:  Solving for T, Initial residual = 1.10604e-14, Final residual = 1.10604e-14, No Iterations 0
nonDiag.size()=8

U.size()=8

F.size()=8

F = normalisedF;

Selected 0 cells for refinement out of 8.
Selected 0 split points out of a possible 0.
mesh updated
Time = 0.65

DICPCG:  Solving for T, Initial residual = 0.612402, Final residual = 6.69842e-17, No Iterations 1
DICPCG:  Solving for T, Initial residual = 5.48766e-15, Final residual = 5.48766e-15, No Iterations 0
DICPCG:  Solving for T, Initial residual = 5.48766e-15, Final residual = 5.48766e-15, No Iterations 0
nonDiag.size()=8

U.size()=8

F.size()=8

F = normalisedF;

Selected 0 cells for refinement out of 8.
Selected 0 split points out of a possible 0.
mesh updated
Time = 0.655

DICPCG:  Solving for T, Initial residual = 0.610567, Final residual = 5.00876e-17, No Iterations 1
DICPCG:  Solving for T, Initial residual = 1.08915e-14, Final residual = 1.08915e-14, No Iterations 0
DICPCG:  Solving for T, Initial residual = 1.08915e-14, Final residual = 1.08915e-14, No Iterations 0
nonDiag.size()=8

U.size()=8

F.size()=8

F = normalisedF;

Selected 0 cells for refinement out of 8.
Selected 0 split points out of a possible 0.
mesh updated
Time = 0.66

DICPCG:  Solving for T, Initial residual = 0.608744, Final residual = 1.6646e-17, No Iterations 1
DICPCG:  Solving for T, Initial residual = 1.62135e-14, Final residual = 1.62135e-14, No Iterations 0
DICPCG:  Solving for T, Initial residual = 1.62135e-14, Final residual = 1.62135e-14, No Iterations 0
nonDiag.size()=8

U.size()=8

F.size()=8

F = normalisedF;

Selected 0 cells for refinement out of 8.
Selected 0 split points out of a possible 0.
mesh updated
Time = 0.665

DICPCG:  Solving for T, Initial residual = 0.606931, Final residual = 1.13712e-16, No Iterations 1
DICPCG:  Solving for T, Initial residual = 0, Final residual = 0, No Iterations 0
DICPCG:  Solving for T, Initial residual = 0, Final residual = 0, No Iterations 0
nonDiag.size()=8

U.size()=8

F.size()=8

F = normalisedF;

Selected 0 cells for refinement out of 8.
Selected 0 split points out of a possible 0.
mesh updated
Time = 0.67

DICPCG:  Solving for T, Initial residual = 0.605129, Final residual = 9.9283e-17, No Iterations 1
DICPCG:  Solving for T, Initial residual = 5.32385e-15, Final residual = 5.32385e-15, No Iterations 0
DICPCG:  Solving for T, Initial residual = 5.32385e-15, Final residual = 5.32385e-15, No Iterations 0
nonDiag.size()=8

U.size()=8

F.size()=8

F = normalisedF;

Selected 0 cells for refinement out of 8.
Selected 0 split points out of a possible 0.
mesh updated
Time = 0.675

DICPCG:  Solving for T, Initial residual = 0.603338, Final residual = 8.18787e-17, No Iterations 1
DICPCG:  Solving for T, Initial residual = 5.28441e-15, Final residual = 5.28441e-15, No Iterations 0
DICPCG:  Solving for T, Initial residual = 5.28441e-15, Final residual = 5.28441e-15, No Iterations 0
nonDiag.size()=8

U.size()=8

F.size()=8

F = normalisedF;

Selected 0 cells for refinement out of 8.
Selected 0 split points out of a possible 0.
mesh updated
Time = 0.68

DICPCG:  Solving for T, Initial residual = 0.601557, Final residual = 8.1637e-17, No Iterations 1
DICPCG:  Solving for T, Initial residual = 0, Final residual = 0, No Iterations 0
DICPCG:  Solving for T, Initial residual = 0, Final residual = 0, No Iterations 0
nonDiag.size()=8

U.size()=8

F.size()=8

F = normalisedF;

Selected 0 cells for refinement out of 8.
Selected 0 split points out of a possible 0.
mesh updated
Time = 0.685

DICPCG:  Solving for T, Initial residual = 0.599787, Final residual = 8.13968e-17, No Iterations 1
DICPCG:  Solving for T, Initial residual = 0, Final residual = 0, No Iterations 0
DICPCG:  Solving for T, Initial residual = 0, Final residual = 0, No Iterations 0
nonDiag.size()=8

U.size()=8

F.size()=8

F = normalisedF;

Selected 0 cells for refinement out of 8.
Selected 0 split points out of a possible 0.
mesh updated
Time = 0.69

DICPCG:  Solving for T, Initial residual = 0.598027, Final residual = 8.1158e-17, No Iterations 1
DICPCG:  Solving for T, Initial residual = 0, Final residual = 0, No Iterations 0
DICPCG:  Solving for T, Initial residual = 0, Final residual = 0, No Iterations 0
nonDiag.size()=8

U.size()=8

F.size()=8

F = normalisedF;

Selected 0 cells for refinement out of 8.
Selected 0 split points out of a possible 0.
mesh updated
Time = 0.695

DICPCG:  Solving for T, Initial residual = 0.596278, Final residual = 9.72257e-17, No Iterations 1
DICPCG:  Solving for T, Initial residual = 0, Final residual = 0, No Iterations 0
DICPCG:  Solving for T, Initial residual = 0, Final residual = 0, No Iterations 0
nonDiag.size()=8

U.size()=8

F.size()=8

F = normalisedF;

Selected 0 cells for refinement out of 8.
Selected 0 split points out of a possible 0.
mesh updated
Time = 0.7

DICPCG:  Solving for T, Initial residual = 0.594538, Final residual = 6.44269e-17, No Iterations 1
DICPCG:  Solving for T, Initial residual = 5.09568e-15, Final residual = 5.09568e-15, No Iterations 0
DICPCG:  Solving for T, Initial residual = 5.09568e-15, Final residual = 5.09568e-15, No Iterations 0
nonDiag.size()=8

U.size()=8

F.size()=8

F = normalisedF;

Selected 0 cells for refinement out of 8.
Selected 0 split points out of a possible 0.
mesh updated
Time = 0.705

DICPCG:  Solving for T, Initial residual = 0.592809, Final residual = 4.86308e-17, No Iterations 1
DICPCG:  Solving for T, Initial residual = 5.05954e-15, Final residual = 5.05954e-15, No Iterations 0
DICPCG:  Solving for T, Initial residual = 5.05954e-15, Final residual = 5.05954e-15, No Iterations 0
nonDiag.size()=8

U.size()=8

F.size()=8

F = normalisedF;

Selected 0 cells for refinement out of 8.
Selected 0 split points out of a possible 0.
mesh updated
Time = 0.71

DICPCG:  Solving for T, Initial residual = 0.59109, Final residual = 6.46531e-17, No Iterations 1
DICPCG:  Solving for T, Initial residual = 0, Final residual = 0, No Iterations 0
DICPCG:  Solving for T, Initial residual = 0, Final residual = 0, No Iterations 0
nonDiag.size()=8

U.size()=8

F.size()=8

F = normalisedF;

Selected 0 cells for refinement out of 8.
Selected 0 split points out of a possible 0.
mesh updated
Time = 0.715

DICPCG:  Solving for T, Initial residual = 0.589381, Final residual = 8.05826e-17, No Iterations 1
DICPCG:  Solving for T, Initial residual = 0, Final residual = 0, No Iterations 0
DICPCG:  Solving for T, Initial residual = 0, Final residual = 0, No Iterations 0
nonDiag.size()=8

U.size()=8

F.size()=8

F = normalisedF;

Selected 0 cells for refinement out of 8.
Selected 0 split points out of a possible 0.
mesh updated
Time = 0.72

DICPCG:  Solving for T, Initial residual = 0.587681, Final residual = 6.39821e-17, No Iterations 1
DICPCG:  Solving for T, Initial residual = 0, Final residual = 0, No Iterations 0
DICPCG:  Solving for T, Initial residual = 0, Final residual = 0, No Iterations 0
nonDiag.size()=8

U.size()=8

F.size()=8

F = normalisedF;

Selected 0 cells for refinement out of 8.
Selected 0 split points out of a possible 0.
mesh updated
Time = 0.725

DICPCG:  Solving for T, Initial residual = 0.585992, Final residual = 8.01193e-17, No Iterations 1
DICPCG:  Solving for T, Initial residual = 0, Final residual = 0, No Iterations 0
DICPCG:  Solving for T, Initial residual = 0, Final residual = 0, No Iterations 0
nonDiag.size()=8

U.size()=8

F.size()=8

F = normalisedF;

Selected 0 cells for refinement out of 8.
Selected 0 split points out of a possible 0.
mesh updated
Time = 0.73

DICPCG:  Solving for T, Initial residual = 0.584312, Final residual = 9.994e-17, No Iterations 1
DICPCG:  Solving for T, Initial residual = 9.77254e-15, Final residual = 9.77254e-15, No Iterations 0
DICPCG:  Solving for T, Initial residual = 9.77254e-15, Final residual = 9.77254e-15, No Iterations 0
nonDiag.size()=8

U.size()=8

F.size()=8

F = normalisedF;

Selected 0 cells for refinement out of 8.
Selected 0 split points out of a possible 0.
mesh updated
Time = 0.735

DICPCG:  Solving for T, Initial residual = 0.582641, Final residual = 6.52071e-17, No Iterations 1
DICPCG:  Solving for T, Initial residual = 9.70606e-15, Final residual = 9.70606e-15, No Iterations 0
DICPCG:  Solving for T, Initial residual = 9.70606e-15, Final residual = 9.70606e-15, No Iterations 0
nonDiag.size()=8

U.size()=8

F.size()=8

F = normalisedF;

Selected 0 cells for refinement out of 8.
Selected 0 split points out of a possible 0.
mesh updated
Time = 0.74

DICPCG:  Solving for T, Initial residual = 0.580981, Final residual = 4.76605e-17, No Iterations 1
DICPCG:  Solving for T, Initial residual = 9.64048e-15, Final residual = 9.64048e-15, No Iterations 0
DICPCG:  Solving for T, Initial residual = 9.64048e-15, Final residual = 9.64048e-15, No Iterations 0
nonDiag.size()=8

U.size()=8

F.size()=8

F = normalisedF;

Selected 0 cells for refinement out of 8.
Selected 0 split points out of a possible 0.
mesh updated
Time = 0.745

DICPCG:  Solving for T, Initial residual = 0.579329, Final residual = 9.505e-17, No Iterations 1
DICPCG:  Solving for T, Initial residual = 0, Final residual = 0, No Iterations 0
DICPCG:  Solving for T, Initial residual = 0, Final residual = 0, No Iterations 0
nonDiag.size()=8

U.size()=8

F.size()=8

F = normalisedF;

Selected 0 cells for refinement out of 8.
Selected 0 split points out of a possible 0.
mesh updated
Time = 0.75

DICPCG:  Solving for T, Initial residual = 0.577687, Final residual = 7.89839e-17, No Iterations 1
DICPCG:  Solving for T, Initial residual = 0, Final residual = 0, No Iterations 0
DICPCG:  Solving for T, Initial residual = 0, Final residual = 0, No Iterations 0
nonDiag.size()=8

U.size()=8

F.size()=8

F = normalisedF;

Selected 0 cells for refinement out of 8.
Selected 0 split points out of a possible 0.
mesh updated
Time = 0.755

DICPCG:  Solving for T, Initial residual = 0.576054, Final residual = 1.10265e-16, No Iterations 1
DICPCG:  Solving for T, Initial residual = 9.44895e-15, Final residual = 9.44895e-15, No Iterations 0
DICPCG:  Solving for T, Initial residual = 9.44895e-15, Final residual = 9.44895e-15, No Iterations 0
nonDiag.size()=8

U.size()=8

F.size()=8

F = normalisedF;

Selected 0 cells for refinement out of 8.
Selected 0 split points out of a possible 0.
mesh updated
Time = 0.76

DICPCG:  Solving for T, Initial residual = 0.574431, Final residual = 6.28309e-17, No Iterations 1
DICPCG:  Solving for T, Initial residual = 0, Final residual = 0, No Iterations 0
DICPCG:  Solving for T, Initial residual = 0, Final residual = 0, No Iterations 0
nonDiag.size()=8

U.size()=8

F.size()=8

F = normalisedF;

Selected 0 cells for refinement out of 8.
Selected 0 split points out of a possible 0.
mesh updated
Time = 0.765

DICPCG:  Solving for T, Initial residual = 0.572817, Final residual = 7.65588e-17, No Iterations 1
DICPCG:  Solving for T, Initial residual = 1.86509e-14, Final residual = 1.86509e-14, No Iterations 0
DICPCG:  Solving for T, Initial residual = 1.86509e-14, Final residual = 1.86509e-14, No Iterations 0
nonDiag.size()=8

U.size()=8

F.size()=8

F = normalisedF;

Selected 0 cells for refinement out of 8.
Selected 0 split points out of a possible 0.
mesh updated
Time = 0.77

DICPCG:  Solving for T, Initial residual = 0.571211, Final residual = 7.80984e-17, No Iterations 1
DICPCG:  Solving for T, Initial residual = 4.63244e-15, Final residual = 4.63244e-15, No Iterations 0
DICPCG:  Solving for T, Initial residual = 4.63244e-15, Final residual = 4.63244e-15, No Iterations 0
nonDiag.size()=8

U.size()=8

F.size()=8

F = normalisedF;

Selected 0 cells for refinement out of 8.
Selected 0 split points out of a possible 0.
mesh updated
Time = 0.775

DICPCG:  Solving for T, Initial residual = 0.569615, Final residual = 4.9025e-17, No Iterations 1
DICPCG:  Solving for T, Initial residual = 4.60255e-15, Final residual = 4.60255e-15, No Iterations 0
DICPCG:  Solving for T, Initial residual = 4.60255e-15, Final residual = 4.60255e-15, No Iterations 0
nonDiag.size()=8

U.size()=8

F.size()=8

F = normalisedF;

Selected 0 cells for refinement out of 8.
Selected 0 split points out of a possible 0.
mesh updated
Time = 0.78

DICPCG:  Solving for T, Initial residual = 0.568027, Final residual = 1.55326e-17, No Iterations 1
DICPCG:  Solving for T, Initial residual = 4.57305e-15, Final residual = 4.57305e-15, No Iterations 0
DICPCG:  Solving for T, Initial residual = 4.57305e-15, Final residual = 4.57305e-15, No Iterations 0
nonDiag.size()=8

U.size()=8

F.size()=8

F = normalisedF;

Selected 0 cells for refinement out of 8.
Selected 0 split points out of a possible 0.
mesh updated
Time = 0.785

DICPCG:  Solving for T, Initial residual = 0.566449, Final residual = 3.09789e-17, No Iterations 1
DICPCG:  Solving for T, Initial residual = 4.54392e-15, Final residual = 4.54392e-15, No Iterations 0
DICPCG:  Solving for T, Initial residual = 4.54392e-15, Final residual = 4.54392e-15, No Iterations 0
nonDiag.size()=8

U.size()=8

F.size()=8

F = normalisedF;

Selected 0 cells for refinement out of 8.
Selected 0 split points out of a possible 0.
mesh updated
Time = 0.79

DICPCG:  Solving for T, Initial residual = 0.564879, Final residual = 1.54465e-17, No Iterations 1
DICPCG:  Solving for T, Initial residual = 9.03032e-15, Final residual = 9.03032e-15, No Iterations 0
DICPCG:  Solving for T, Initial residual = 9.03032e-15, Final residual = 9.03032e-15, No Iterations 0
nonDiag.size()=8

U.size()=8

F.size()=8

F = normalisedF;

Selected 0 cells for refinement out of 8.
Selected 0 split points out of a possible 0.
mesh updated
Time = 0.795

DICPCG:  Solving for T, Initial residual = 0.563318, Final residual = 0, No Iterations 1
DICPCG:  Solving for T, Initial residual = 1.79471e-14, Final residual = 1.79471e-14, No Iterations 0
DICPCG:  Solving for T, Initial residual = 1.79471e-14, Final residual = 1.79471e-14, No Iterations 0
nonDiag.size()=8

U.size()=8

F.size()=8

F = normalisedF;

Selected 0 cells for refinement out of 8.
Selected 0 split points out of a possible 0.
mesh updated
Time = 0.8

DICPCG:  Solving for T, Initial residual = 0.561765, Final residual = 4.60841e-17, No Iterations 1
DICPCG:  Solving for T, Initial residual = 1.78349e-14, Final residual = 1.78349e-14, No Iterations 0
DICPCG:  Solving for T, Initial residual = 1.78349e-14, Final residual = 1.78349e-14, No Iterations 0
nonDiag.size()=8

U.size()=8

F.size()=8

F = normalisedF;

Selected 0 cells for refinement out of 8.
Selected 0 split points out of a possible 0.
mesh updated
Time = 0.805

DICPCG:  Solving for T, Initial residual = 0.560221, Final residual = 0, No Iterations 1
DICPCG:  Solving for T, Initial residual = 8.86205e-15, Final residual = 8.86205e-15, No Iterations 0
DICPCG:  Solving for T, Initial residual = 8.86205e-15, Final residual = 8.86205e-15, No Iterations 0
nonDiag.size()=8

U.size()=8

F.size()=8

F = normalisedF;

Selected 0 cells for refinement out of 8.
Selected 0 split points out of a possible 0.
mesh updated
Time = 0.81

DICPCG:  Solving for T, Initial residual = 0.558685, Final residual = 6.11087e-17, No Iterations 1
DICPCG:  Solving for T, Initial residual = 0, Final residual = 0, No Iterations 0
DICPCG:  Solving for T, Initial residual = 0, Final residual = 0, No Iterations 0
nonDiag.size()=8

U.size()=8

F.size()=8

F = normalisedF;

Selected 0 cells for refinement out of 8.
Selected 0 split points out of a possible 0.
mesh updated
Time = 0.815

DICPCG:  Solving for T, Initial residual = 0.557158, Final residual = 4.57062e-17, No Iterations 1
DICPCG:  Solving for T, Initial residual = 1.313e-14, Final residual = 1.313e-14, No Iterations 0
DICPCG:  Solving for T, Initial residual = 1.313e-14, Final residual = 1.313e-14, No Iterations 0
nonDiag.size()=8

U.size()=8

F.size()=8

F = normalisedF;

Selected 0 cells for refinement out of 8.
Selected 0 split points out of a possible 0.
mesh updated
Time = 0.82

DICPCG:  Solving for T, Initial residual = 0.555639, Final residual = 1.51939e-17, No Iterations 1
DICPCG:  Solving for T, Initial residual = 1.30499e-14, Final residual = 1.30499e-14, No Iterations 0
DICPCG:  Solving for T, Initial residual = 1.30499e-14, Final residual = 1.30499e-14, No Iterations 0
nonDiag.size()=8

U.size()=8

F.size()=8

F = normalisedF;

Selected 0 cells for refinement out of 8.
Selected 0 split points out of a possible 0.
mesh updated
Time = 0.825

DICPCG:  Solving for T, Initial residual = 0.554129, Final residual = 1.51526e-17, No Iterations 1
DICPCG:  Solving for T, Initial residual = 1.72944e-14, Final residual = 1.72944e-14, No Iterations 0
DICPCG:  Solving for T, Initial residual = 1.72944e-14, Final residual = 1.72944e-14, No Iterations 0
nonDiag.size()=8

U.size()=8

F.size()=8

F = normalisedF;

Selected 0 cells for refinement out of 8.
Selected 0 split points out of a possible 0.
mesh updated
Time = 0.83

DICPCG:  Solving for T, Initial residual = 0.552626, Final residual = 4.53344e-17, No Iterations 1
DICPCG:  Solving for T, Initial residual = 1.71902e-14, Final residual = 1.71902e-14, No Iterations 0
DICPCG:  Solving for T, Initial residual = 1.71902e-14, Final residual = 1.71902e-14, No Iterations 0
nonDiag.size()=8

U.size()=8

F.size()=8

F = normalisedF;

Selected 0 cells for refinement out of 8.
Selected 0 split points out of a possible 0.
mesh updated
Time = 0.835

DICPCG:  Solving for T, Initial residual = 0.551132, Final residual = 6.02825e-17, No Iterations 1
DICPCG:  Solving for T, Initial residual = 0, Final residual = 0, No Iterations 0
DICPCG:  Solving for T, Initial residual = 0, Final residual = 0, No Iterations 0
nonDiag.size()=8

U.size()=8

F.size()=8

F = normalisedF;

Selected 0 cells for refinement out of 8.
Selected 0 split points out of a possible 0.
mesh updated
Time = 0.84

DICPCG:  Solving for T, Initial residual = 0.549646, Final residual = 1.503e-17, No Iterations 1
DICPCG:  Solving for T, Initial residual = 2.54784e-14, Final residual = 2.54784e-14, No Iterations 0
DICPCG:  Solving for T, Initial residual = 2.54784e-14, Final residual = 2.54784e-14, No Iterations 0
nonDiag.size()=8

U.size()=8

F.size()=8

F = normalisedF;

Selected 0 cells for refinement out of 8.
Selected 0 split points out of a possible 0.
mesh updated
Time = 0.845

DICPCG:  Solving for T, Initial residual = 0.548167, Final residual = 1.49896e-17, No Iterations 1
DICPCG:  Solving for T, Initial residual = 8.44255e-15, Final residual = 8.44255e-15, No Iterations 0
DICPCG:  Solving for T, Initial residual = 8.44255e-15, Final residual = 8.44255e-15, No Iterations 0
nonDiag.size()=8

U.size()=8

F.size()=8

F = normalisedF;

Selected 0 cells for refinement out of 8.
Selected 0 split points out of a possible 0.
mesh updated
Time = 0.85

DICPCG:  Solving for T, Initial residual = 0.546697, Final residual = 2.98987e-17, No Iterations 1
[...]
DICPCG:  Solving for T, Initial residual = 5.8295e-15, Final residual = 5.8295e-15, No Iterations 0
nonDiag.size()=8

U.size()=8

F.size()=8

F = normalisedF;

Selected 0 cells for refinement out of 8.
Selected 0 split points out of a possible 0.
mesh updated
Time = 9.795

DICPCG:  Solving for T, Initial residual = 0.0520337, Final residual = 4.26856e-18, No Iterations 1
DICPCG:  Solving for T, Initial residual = 1.1653e-14, Final residual = 1.1653e-14, No Iterations 0
DICPCG:  Solving for T, Initial residual = 1.1653e-14, Final residual = 1.1653e-14, No Iterations 0
nonDiag.size()=8

U.size()=8

F.size()=8

F = normalisedF;

Selected 0 cells for refinement out of 8.
Selected 0 split points out of a possible 0.
mesh updated
Time = 9.8

DICPCG:  Solving for T, Initial residual = 0.0520072, Final residual = 7.11064e-18, No Iterations 1
DICPCG:  Solving for T, Initial residual = 0, Final residual = 0, No Iterations 0
DICPCG:  Solving for T, Initial residual = 0, Final residual = 0, No Iterations 0
nonDiag.size()=8

U.size()=8

F.size()=8

F = normalisedF;

Selected 0 cells for refinement out of 8.
Selected 0 split points out of a possible 0.
mesh updated
Time = 9.805

DICPCG:  Solving for T, Initial residual = 0.0519806, Final residual = 5.68561e-18, No Iterations 1
DICPCG:  Solving for T, Initial residual = 5.82058e-15, Final residual = 5.82058e-15, No Iterations 0
DICPCG:  Solving for T, Initial residual = 5.82058e-15, Final residual = 5.82058e-15, No Iterations 0
nonDiag.size()=8

U.size()=8

F.size()=8

F = normalisedF;

Selected 0 cells for refinement out of 8.
Selected 0 split points out of a possible 0.
mesh updated
Time = 9.81

DICPCG:  Solving for T, Initial residual = 0.0519541, Final residual = 4.47153e-18, No Iterations 1
DICPCG:  Solving for T, Initial residual = 5.81762e-15, Final residual = 5.81762e-15, No Iterations 0
DICPCG:  Solving for T, Initial residual = 5.81762e-15, Final residual = 5.81762e-15, No Iterations 0
nonDiag.size()=8

U.size()=8

F.size()=8

F = normalisedF;

Selected 0 cells for refinement out of 8.
Selected 0 split points out of a possible 0.
mesh updated
Time = 9.815

DICPCG:  Solving for T, Initial residual = 0.0519277, Final residual = 7.09977e-18, No Iterations 1
DICPCG:  Solving for T, Initial residual = 1.16293e-14, Final residual = 1.16293e-14, No Iterations 0
DICPCG:  Solving for T, Initial residual = 1.16293e-14, Final residual = 1.16293e-14, No Iterations 0
nonDiag.size()=8

U.size()=8

F.size()=8

F = normalisedF;

Selected 0 cells for refinement out of 8.
Selected 0 split points out of a possible 0.
mesh updated
Time = 9.82

DICPCG:  Solving for T, Initial residual = 0.0519012, Final residual = 4.41708e-18, No Iterations 1
DICPCG:  Solving for T, Initial residual = 0, Final residual = 0, No Iterations 0
DICPCG:  Solving for T, Initial residual = 0, Final residual = 0, No Iterations 0
nonDiag.size()=8

U.size()=8

F.size()=8

F = normalisedF;

Selected 0 cells for refinement out of 8.
Selected 0 split points out of a possible 0.
mesh updated
Time = 9.825

DICPCG:  Solving for T, Initial residual = 0.0518748, Final residual = 8.19521e-18, No Iterations 1
DICPCG:  Solving for T, Initial residual = 5.80873e-15, Final residual = 5.80873e-15, No Iterations 0
DICPCG:  Solving for T, Initial residual = 5.80873e-15, Final residual = 5.80873e-15, No Iterations 0
nonDiag.size()=8

U.size()=8

F.size()=8

F = normalisedF;

Selected 0 cells for refinement out of 8.
Selected 0 split points out of a possible 0.
mesh updated
Time = 9.83

DICPCG:  Solving for T, Initial residual = 0.0518484, Final residual = 2.83557e-18, No Iterations 1
DICPCG:  Solving for T, Initial residual = 5.80578e-15, Final residual = 5.80578e-15, No Iterations 0
DICPCG:  Solving for T, Initial residual = 5.80578e-15, Final residual = 5.80578e-15, No Iterations 0
nonDiag.size()=8

U.size()=8

F.size()=8

F = normalisedF;

Selected 0 cells for refinement out of 8.
Selected 0 split points out of a possible 0.
mesh updated
Time = 9.835

DICPCG:  Solving for T, Initial residual = 0.051822, Final residual = 7.08533e-18, No Iterations 1
DICPCG:  Solving for T, Initial residual = 0, Final residual = 0, No Iterations 0
DICPCG:  Solving for T, Initial residual = 0, Final residual = 0, No Iterations 0
nonDiag.size()=8

U.size()=8

F.size()=8

F = normalisedF;

Selected 0 cells for refinement out of 8.
Selected 0 split points out of a possible 0.
mesh updated
Time = 9.84

DICPCG:  Solving for T, Initial residual = 0.0517957, Final residual = 4.24904e-18, No Iterations 1
DICPCG:  Solving for T, Initial residual = 5.79988e-15, Final residual = 5.79988e-15, No Iterations 0
DICPCG:  Solving for T, Initial residual = 5.79988e-15, Final residual = 5.79988e-15, No Iterations 0
nonDiag.size()=8

U.size()=8

F.size()=8

F = normalisedF;

Selected 0 cells for refinement out of 8.
Selected 0 split points out of a possible 0.
mesh updated
Time = 9.845

DICPCG:  Solving for T, Initial residual = 0.0517694, Final residual = 4.45563e-18, No Iterations 1
DICPCG:  Solving for T, Initial residual = 1.15939e-14, Final residual = 1.15939e-14, No Iterations 0
DICPCG:  Solving for T, Initial residual = 1.15939e-14, Final residual = 1.15939e-14, No Iterations 0
nonDiag.size()=8

U.size()=8

F.size()=8

F = normalisedF;

Selected 0 cells for refinement out of 8.
Selected 0 split points out of a possible 0.
mesh updated
Time = 9.85

DICPCG:  Solving for T, Initial residual = 0.0517431, Final residual = 4.24472e-18, No Iterations 1
DICPCG:  Solving for T, Initial residual = 1.1588e-14, Final residual = 1.1588e-14, No Iterations 0
DICPCG:  Solving for T, Initial residual = 1.1588e-14, Final residual = 1.1588e-14, No Iterations 0
nonDiag.size()=8

U.size()=8

F.size()=8

F = normalisedF;

Selected 0 cells for refinement out of 8.
Selected 0 split points out of a possible 0.
mesh updated
Time = 9.855

DICPCG:  Solving for T, Initial residual = 0.0517168, Final residual = 3.17088e-18, No Iterations 1
DICPCG:  Solving for T, Initial residual = 1.15821e-14, Final residual = 1.15821e-14, No Iterations 0
DICPCG:  Solving for T, Initial residual = 1.15821e-14, Final residual = 1.15821e-14, No Iterations 0
nonDiag.size()=8

U.size()=8

F.size()=8

F = normalisedF;

Selected 0 cells for refinement out of 8.
Selected 0 split points out of a possible 0.
mesh updated
Time = 9.86

DICPCG:  Solving for T, Initial residual = 0.0516906, Final residual = 6.85893e-18, No Iterations 1
DICPCG:  Solving for T, Initial residual = 1.15762e-14, Final residual = 1.15762e-14, No Iterations 0
DICPCG:  Solving for T, Initial residual = 1.15762e-14, Final residual = 1.15762e-14, No Iterations 0
nonDiag.size()=8

U.size()=8

F.size()=8

F = normalisedF;

Selected 0 cells for refinement out of 8.
Selected 0 split points out of a possible 0.
mesh updated
Time = 9.865

DICPCG:  Solving for T, Initial residual = 0.0516644, Final residual = 1.41276e-18, No Iterations 1
DICPCG:  Solving for T, Initial residual = 1.15704e-14, Final residual = 1.15704e-14, No Iterations 0
DICPCG:  Solving for T, Initial residual = 1.15704e-14, Final residual = 1.15704e-14, No Iterations 0
nonDiag.size()=8

U.size()=8

F.size()=8

F = normalisedF;

Selected 0 cells for refinement out of 8.
Selected 0 split points out of a possible 0.
mesh updated
Time = 9.87

DICPCG:  Solving for T, Initial residual = 0.0516382, Final residual = 3.16606e-18, No Iterations 1
DICPCG:  Solving for T, Initial residual = 5.78225e-15, Final residual = 5.78225e-15, No Iterations 0
DICPCG:  Solving for T, Initial residual = 5.78225e-15, Final residual = 5.78225e-15, No Iterations 0
nonDiag.size()=8

U.size()=8

F.size()=8

F = normalisedF;

Selected 0 cells for refinement out of 8.
Selected 0 split points out of a possible 0.
mesh updated
Time = 9.875

DICPCG:  Solving for T, Initial residual = 0.0516121, Final residual = 4.23397e-18, No Iterations 1
DICPCG:  Solving for T, Initial residual = 5.77932e-15, Final residual = 5.77932e-15, No Iterations 0
DICPCG:  Solving for T, Initial residual = 5.77932e-15, Final residual = 5.77932e-15, No Iterations 0
nonDiag.size()=8

U.size()=8

F.size()=8

F = normalisedF;

Selected 0 cells for refinement out of 8.
Selected 0 split points out of a possible 0.
mesh updated
Time = 9.88

DICPCG:  Solving for T, Initial residual = 0.0515859, Final residual = 5.66724e-18, No Iterations 1
DICPCG:  Solving for T, Initial residual = 1.15528e-14, Final residual = 1.15528e-14, No Iterations 0
DICPCG:  Solving for T, Initial residual = 1.15528e-14, Final residual = 1.15528e-14, No Iterations 0
nonDiag.size()=8

U.size()=8

F.size()=8

F = normalisedF;

Selected 0 cells for refinement out of 8.
Selected 0 split points out of a possible 0.
mesh updated
Time = 9.885

DICPCG:  Solving for T, Initial residual = 0.0515598, Final residual = 1.4099e-18, No Iterations 1
DICPCG:  Solving for T, Initial residual = 5.77347e-15, Final residual = 5.77347e-15, No Iterations 0
DICPCG:  Solving for T, Initial residual = 5.77347e-15, Final residual = 5.77347e-15, No Iterations 0
nonDiag.size()=8

U.size()=8

F.size()=8

F = normalisedF;

Selected 0 cells for refinement out of 8.
Selected 0 split points out of a possible 0.
mesh updated
Time = 9.89

DICPCG:  Solving for T, Initial residual = 0.0515338, Final residual = 1.40918e-18, No Iterations 1
DICPCG:  Solving for T, Initial residual = 5.77056e-15, Final residual = 5.77056e-15, No Iterations 0
DICPCG:  Solving for T, Initial residual = 5.77056e-15, Final residual = 5.77056e-15, No Iterations 0
nonDiag.size()=8

U.size()=8

F.size()=8

F = normalisedF;

Selected 0 cells for refinement out of 8.
Selected 0 split points out of a possible 0.
mesh updated
Time = 9.895

DICPCG:  Solving for T, Initial residual = 0.0515077, Final residual = 2.81694e-18, No Iterations 1
DICPCG:  Solving for T, Initial residual = 5.76764e-15, Final residual = 5.76764e-15, No Iterations 0
DICPCG:  Solving for T, Initial residual = 5.76764e-15, Final residual = 5.76764e-15, No Iterations 0
nonDiag.size()=8

U.size()=8

F.size()=8

F = normalisedF;

Selected 0 cells for refinement out of 8.
Selected 0 split points out of a possible 0.
mesh updated
Time = 9.9

DICPCG:  Solving for T, Initial residual = 0.0514817, Final residual = 1.40776e-18, No Iterations 1
DICPCG:  Solving for T, Initial residual = 5.76473e-15, Final residual = 5.76473e-15, No Iterations 0
DICPCG:  Solving for T, Initial residual = 5.76473e-15, Final residual = 5.76473e-15, No Iterations 0
nonDiag.size()=8

U.size()=8

F.size()=8

F = normalisedF;

Selected 0 cells for refinement out of 8.
Selected 0 split points out of a possible 0.
mesh updated
Time = 9.905

DICPCG:  Solving for T, Initial residual = 0.0514557, Final residual = 7.03524e-18, No Iterations 1
DICPCG:  Solving for T, Initial residual = 1.15236e-14, Final residual = 1.15236e-14, No Iterations 0
DICPCG:  Solving for T, Initial residual = 1.15236e-14, Final residual = 1.15236e-14, No Iterations 0
nonDiag.size()=8

U.size()=8

F.size()=8

F = normalisedF;

Selected 0 cells for refinement out of 8.
Selected 0 split points out of a possible 0.
mesh updated
Time = 9.91

DICPCG:  Solving for T, Initial residual = 0.0514297, Final residual = 9.32249e-18, No Iterations 1
DICPCG:  Solving for T, Initial residual = 5.75891e-15, Final residual = 5.75891e-15, No Iterations 0
DICPCG:  Solving for T, Initial residual = 5.75891e-15, Final residual = 5.75891e-15, No Iterations 0
nonDiag.size()=8

U.size()=8

F.size()=8

F = normalisedF;

Selected 0 cells for refinement out of 8.
Selected 0 split points out of a possible 0.
mesh updated
Time = 9.915

DICPCG:  Solving for T, Initial residual = 0.0514038, Final residual = 4.21689e-18, No Iterations 1
DICPCG:  Solving for T, Initial residual = 5.75601e-15, Final residual = 5.75601e-15, No Iterations 0
DICPCG:  Solving for T, Initial residual = 5.75601e-15, Final residual = 5.75601e-15, No Iterations 0
nonDiag.size()=8

U.size()=8

F.size()=8

F = normalisedF;

Selected 0 cells for refinement out of 8.
Selected 0 split points out of a possible 0.
mesh updated
Time = 9.92

DICPCG:  Solving for T, Initial residual = 0.0513779, Final residual = 5.61968e-18, No Iterations 1
DICPCG:  Solving for T, Initial residual = 1.15062e-14, Final residual = 1.15062e-14, No Iterations 0
DICPCG:  Solving for T, Initial residual = 1.15062e-14, Final residual = 1.15062e-14, No Iterations 0
nonDiag.size()=8

U.size()=8

F.size()=8

F = normalisedF;

Selected 0 cells for refinement out of 8.
Selected 0 split points out of a possible 0.
mesh updated
Time = 9.925

DICPCG:  Solving for T, Initial residual = 0.051352, Final residual = 4.37034e-18, No Iterations 1
DICPCG:  Solving for T, Initial residual = 0, Final residual = 0, No Iterations 0
DICPCG:  Solving for T, Initial residual = 0, Final residual = 0, No Iterations 0
nonDiag.size()=8

U.size()=8

F.size()=8

F = normalisedF;

Selected 0 cells for refinement out of 8.
Selected 0 split points out of a possible 0.
mesh updated
Time = 9.93

DICPCG:  Solving for T, Initial residual = 0.0513261, Final residual = 8.08112e-18, No Iterations 1
DICPCG:  Solving for T, Initial residual = 0, Final residual = 0, No Iterations 0
DICPCG:  Solving for T, Initial residual = 0, Final residual = 0, No Iterations 0
nonDiag.size()=8

U.size()=8

F.size()=8

F = normalisedF;

Selected 0 cells for refinement out of 8.
Selected 0 split points out of a possible 0.
mesh updated
Time = 9.935

DICPCG:  Solving for T, Initial residual = 0.0513003, Final residual = 4.2084e-18, No Iterations 1
DICPCG:  Solving for T, Initial residual = 5.74442e-15, Final residual = 5.74442e-15, No Iterations 0
DICPCG:  Solving for T, Initial residual = 5.74442e-15, Final residual = 5.74442e-15, No Iterations 0
nonDiag.size()=8

U.size()=8

F.size()=8

F = normalisedF;

Selected 0 cells for refinement out of 8.
Selected 0 split points out of a possible 0.
mesh updated
Time = 9.94

DICPCG:  Solving for T, Initial residual = 0.0512745, Final residual = 6.80371e-18, No Iterations 1
DICPCG:  Solving for T, Initial residual = 1.14831e-14, Final residual = 1.14831e-14, No Iterations 0
DICPCG:  Solving for T, Initial residual = 1.14831e-14, Final residual = 1.14831e-14, No Iterations 0
nonDiag.size()=8

U.size()=8

F.size()=8

F = normalisedF;

Selected 0 cells for refinement out of 8.
Selected 0 split points out of a possible 0.
mesh updated
Time = 9.945

DICPCG:  Solving for T, Initial residual = 0.0512487, Final residual = 2.80278e-18, No Iterations 1
DICPCG:  Solving for T, Initial residual = 5.73864e-15, Final residual = 5.73864e-15, No Iterations 0
DICPCG:  Solving for T, Initial residual = 5.73864e-15, Final residual = 5.73864e-15, No Iterations 0
nonDiag.size()=8

U.size()=8

F.size()=8

F = normalisedF;

Selected 0 cells for refinement out of 8.
Selected 0 split points out of a possible 0.
mesh updated
Time = 9.95

DICPCG:  Solving for T, Initial residual = 0.0512229, Final residual = 2.80137e-18, No Iterations 1
DICPCG:  Solving for T, Initial residual = 5.73576e-15, Final residual = 5.73576e-15, No Iterations 0
DICPCG:  Solving for T, Initial residual = 5.73576e-15, Final residual = 5.73576e-15, No Iterations 0
nonDiag.size()=8

U.size()=8

F.size()=8

F = normalisedF;

Selected 0 cells for refinement out of 8.
Selected 0 split points out of a possible 0.
mesh updated
Time = 9.955

DICPCG:  Solving for T, Initial residual = 0.0511972, Final residual = 4.19994e-18, No Iterations 1
DICPCG:  Solving for T, Initial residual = 0, Final residual = 0, No Iterations 0
DICPCG:  Solving for T, Initial residual = 0, Final residual = 0, No Iterations 0
nonDiag.size()=8

U.size()=8

F.size()=8

F = normalisedF;

Selected 0 cells for refinement out of 8.
Selected 0 split points out of a possible 0.
mesh updated
Time = 9.96

DICPCG:  Solving for T, Initial residual = 0.0511715, Final residual = 1.39928e-18, No Iterations 1
DICPCG:  Solving for T, Initial residual = 1.146e-14, Final residual = 1.146e-14, No Iterations 0
DICPCG:  Solving for T, Initial residual = 1.146e-14, Final residual = 1.146e-14, No Iterations 0
nonDiag.size()=8

U.size()=8

F.size()=8

F = normalisedF;

Selected 0 cells for refinement out of 8.
Selected 0 split points out of a possible 0.
mesh updated
Time = 9.965

DICPCG:  Solving for T, Initial residual = 0.0511458, Final residual = 6.83581e-18, No Iterations 1
DICPCG:  Solving for T, Initial residual = 5.72712e-15, Final residual = 5.72712e-15, No Iterations 0
DICPCG:  Solving for T, Initial residual = 5.72712e-15, Final residual = 5.72712e-15, No Iterations 0
nonDiag.size()=8

U.size()=8

F.size()=8

F = normalisedF;

Selected 0 cells for refinement out of 8.
Selected 0 split points out of a possible 0.
mesh updated
Time = 9.97

DICPCG:  Solving for T, Initial residual = 0.0511201, Final residual = 2.79575e-18, No Iterations 1
DICPCG:  Solving for T, Initial residual = 0, Final residual = 0, No Iterations 0
DICPCG:  Solving for T, Initial residual = 0, Final residual = 0, No Iterations 0
nonDiag.size()=8

U.size()=8

F.size()=8

F = normalisedF;

Selected 0 cells for refinement out of 8.
Selected 0 split points out of a possible 0.
mesh updated
Time = 9.975

DICPCG:  Solving for T, Initial residual = 0.0510945, Final residual = 6.98586e-18, No Iterations 1
DICPCG:  Solving for T, Initial residual = 5.72138e-15, Final residual = 5.72138e-15, No Iterations 0
DICPCG:  Solving for T, Initial residual = 5.72138e-15, Final residual = 5.72138e-15, No Iterations 0
nonDiag.size()=8

U.size()=8

F.size()=8

F = normalisedF;

Selected 0 cells for refinement out of 8.
Selected 0 split points out of a possible 0.
mesh updated
Time = 9.98

DICPCG:  Solving for T, Initial residual = 0.0510689, Final residual = 6.98236e-18, No Iterations 1
DICPCG:  Solving for T, Initial residual = 1.1437e-14, Final residual = 1.1437e-14, No Iterations 0
DICPCG:  Solving for T, Initial residual = 1.1437e-14, Final residual = 1.1437e-14, No Iterations 0
nonDiag.size()=8

U.size()=8

F.size()=8

F = normalisedF;

Selected 0 cells for refinement out of 8.
Selected 0 split points out of a possible 0.
mesh updated
Time = 9.985

DICPCG:  Solving for T, Initial residual = 0.0510433, Final residual = 1.39577e-18, No Iterations 1
DICPCG:  Solving for T, Initial residual = 0, Final residual = 0, No Iterations 0
DICPCG:  Solving for T, Initial residual = 0, Final residual = 0, No Iterations 0
nonDiag.size()=8

U.size()=8

F.size()=8

F = normalisedF;

Selected 0 cells for refinement out of 8.
Selected 0 split points out of a possible 0.
mesh updated
Time = 9.99

DICPCG:  Solving for T, Initial residual = 0.0510178, Final residual = 7.02714e-18, No Iterations 1
DICPCG:  Solving for T, Initial residual = 0, Final residual = 0, No Iterations 0
DICPCG:  Solving for T, Initial residual = 0, Final residual = 0, No Iterations 0
nonDiag.size()=8

U.size()=8

F.size()=8

F = normalisedF;

Selected 0 cells for refinement out of 8.
Selected 0 split points out of a possible 0.
mesh updated
Time = 9.995

DICPCG:  Solving for T, Initial residual = 0.0509922, Final residual = 5.60201e-18, No Iterations 1
DICPCG:  Solving for T, Initial residual = 0, Final residual = 0, No Iterations 0
DICPCG:  Solving for T, Initial residual = 0, Final residual = 0, No Iterations 0
nonDiag.size()=8

U.size()=8

F.size()=8

F = normalisedF;

Selected 0 cells for refinement out of 8.
Selected 0 split points out of a possible 0.
mesh updated
Time = 10

DICPCG:  Solving for T, Initial residual = 0.0509667, Final residual = 4.18103e-18, No Iterations 1
DICPCG:  Solving for T, Initial residual = 1.71212e-14, Final residual = 1.71212e-14, No Iterations 0
DICPCG:  Solving for T, Initial residual = 1.71212e-14, Final residual = 1.71212e-14, No Iterations 0
nonDiag.size()=8

U.size()=8

F.size()=8

F = normalisedF;

Selected 0 cells for refinement out of 8.
Selected 0 split points out of a possible 0.
mesh updated
ExecutionTime = 3.37 s  ClockTime = 9 s

End

