/*---------------------------------------------------------------------------*\
| =========                 |                                                 |
| \\      /  F ield         | OpenFOAM: The Open Source CFD Toolbox           |
|  \\    /   O peration     | Version:  2.3.0                                 |
|   \\  /    A nd           | Web:      www.OpenFOAM.org                      |
|    \\/     M anipulation  |                                                 |
\*---------------------------------------------------------------------------*/
Build  : 2.3.0-f5222ca19ce6
Exec   : laplacianFoamF
Date   : Dec 04 2014
Time   : 15:11:29
Host   : "debian-toshiba"
PID    : 12954
Case   : /home/jenek/laplacianFoamF/laplacianFoamF/case5cells
nProcs : 1
sigFpe : Enabling floating point exception trapping (FOAM_SIGFPE).
fileModificationChecking : Monitoring run-time modified files using timeStampMaster
allowSystemOperations : Disallowing user-supplied system call operations

// * * * * * * * * * * * * * * * * * * * * * * * * * * * * * * * * * * * * * //
Create time

Create mesh for time = 0

Selecting dynamicFvMesh dynamicRefineFvMesh

SIMPLE: convergence criteria
field T	 tolerance 0.0001

Reading field T

Reading transportProperties

Reading diffusivity DT


Starting time loop

Time = 0.005

DICPCG:  Solving for T, Initial residual = 1, Final residual = 8.20346e-17, No Iterations 1
DICPCG:  Solving for T, Initial residual = 8.36011e-15, Final residual = 8.36011e-15, No Iterations 0
DICPCG:  Solving for T, Initial residual = 8.36011e-15, Final residual = 8.36011e-15, No Iterations 0
nonDiag.size()=8

U.size()=8

F.size()=8

F = normalisedF;

Selected 8 cells for refinement out of 8.
Refined from 8 to 64 cells.
--> FOAM Warning :
From function dynamicRefineFvMesh::refine(const labelList&)
in file dynamicRefineFvMesh/dynamicRefineFvMesh.C at line 315
Cannot find surfaceScalarField -((DT*magSf)*snGradCorr(T)) in user-provided flux mapping table
0
(
)
The flux mapping table is used to recreate the flux on newly created faces.
Either add the entry if it is a flux or use (-((DT*magSf)*snGradCorr(T)) none) to suppress this warning.
Selected 0 split points out of a possible 8.
mesh updated
Execution time for mesh.update() = -2.0837e-19 s
Time = 0.01

DICPCG:  Solving for T, Initial residual = 0.993924, Final residual = 1.27853e-12, No Iterations 1
DICPCG:  Solving for T, Initial residual = 6.52794e-13, Final residual = 6.52794e-13, No Iterations 0
DICPCG:  Solving for T, Initial residual = 6.52794e-13, Final residual = 6.52794e-13, No Iterations 0
nonDiag.size()=64

U.size()=64

F.size()=64

F = normalisedF;

Selected 64 cells for refinement out of 64.
Refined from 64 to 512 cells.
--> FOAM Warning :
From function dynamicRefineFvMesh::refine(const labelList&)
in file dynamicRefineFvMesh/dynamicRefineFvMesh.C at line 315
Cannot find surfaceScalarField -((DT*magSf)*snGradCorr(T)) in user-provided flux mapping table
0
(
)
The flux mapping table is used to recreate the flux on newly created faces.
Either add the entry if it is a flux or use (-((DT*magSf)*snGradCorr(T)) none) to suppress this warning.
Selected 0 split points out of a possible 64.
mesh updated
Execution time for mesh.update() = 0.02 s
Time = 0.015

DICPCG:  Solving for T, Initial residual = 0.338362, Final residual = 7.04739e-12, No Iterations 1
DICPCG:  Solving for T, Initial residual = 5.26673e-12, Final residual = 5.26673e-12, No Iterations 0
DICPCG:  Solving for T, Initial residual = 5.26673e-12, Final residual = 5.26673e-12, No Iterations 0
nonDiag.size()=512

U.size()=512

F.size()=512

F = normalisedF;

Selected 0 cells for refinement out of 512.
Selected 0 split points out of a possible 64.
mesh updated
Time = 0.02

DICPCG:  Solving for T, Initial residual = 0.202437, Final residual = 4.21635e-12, No Iterations 1
DICPCG:  Solving for T, Initial residual = 3.02027e-12, Final residual = 3.02027e-12, No Iterations 0
DICPCG:  Solving for T, Initial residual = 3.02027e-12, Final residual = 3.02027e-12, No Iterations 0
nonDiag.size()=512

U.size()=512

F.size()=512

F = normalisedF;

Selected 0 cells for refinement out of 512.
Selected 0 split points out of a possible 64.
mesh updated
Time = 0.025

DICPCG:  Solving for T, Initial residual = 0.127006, Final residual = 2.6453e-12, No Iterations 1
DICPCG:  Solving for T, Initial residual = 2.11425e-12, Final residual = 2.11425e-12, No Iterations 0
DICPCG:  Solving for T, Initial residual = 2.11425e-12, Final residual = 2.11425e-12, No Iterations 0
nonDiag.size()=512

U.size()=512

F.size()=512

F = normalisedF;

Selected 0 cells for refinement out of 512.
Selected 0 split points out of a possible 64.
mesh updated
Time = 0.03

DICPCG:  Solving for T, Initial residual = 0.0923453, Final residual = 1.92337e-12, No Iterations 1
DICPCG:  Solving for T, Initial residual = 1.62639e-12, Final residual = 1.62639e-12, No Iterations 0
DICPCG:  Solving for T, Initial residual = 1.62639e-12, Final residual = 1.62639e-12, No Iterations 0
nonDiag.size()=512

U.size()=512

F.size()=512

F = normalisedF;

Selected 0 cells for refinement out of 512.
Selected 0 split points out of a possible 64.
mesh updated
Time = 0.035

DICPCG:  Solving for T, Initial residual = 0.0725469, Final residual = 1.51102e-12, No Iterations 1
DICPCG:  Solving for T, Initial residual = 1.32143e-12, Final residual = 1.32143e-12, No Iterations 0
DICPCG:  Solving for T, Initial residual = 1.32143e-12, Final residual = 1.32143e-12, No Iterations 0
nonDiag.size()=512

U.size()=512

F.size()=512

F = normalisedF;

Selected 0 cells for refinement out of 512.
Selected 0 split points out of a possible 64.
mesh updated
Time = 0.04

DICPCG:  Solving for T, Initial residual = 0.0597394, Final residual = 1.24426e-12, No Iterations 1
DICPCG:  Solving for T, Initial residual = 1.11279e-12, Final residual = 1.11279e-12, No Iterations 0
DICPCG:  Solving for T, Initial residual = 1.11279e-12, Final residual = 1.11279e-12, No Iterations 0
nonDiag.size()=512

U.size()=512

F.size()=512

F = normalisedF;

Selected 0 cells for refinement out of 512.
Selected 0 split points out of a possible 64.
mesh updated
Time = 0.045

DICPCG:  Solving for T, Initial residual = 0.0507755, Final residual = 1.05755e-12, No Iterations 1
DICPCG:  Solving for T, Initial residual = 9.61049e-13, Final residual = 9.61049e-13, No Iterations 0
DICPCG:  Solving for T, Initial residual = 9.61049e-13, Final residual = 9.61049e-13, No Iterations 0
nonDiag.size()=512

U.size()=512

F.size()=512

F = normalisedF;

Selected 0 cells for refinement out of 512.
Selected 0 split points out of a possible 64.
mesh updated
Time = 0.05

DICPCG:  Solving for T, Initial residual = 0.0441508, Final residual = 9.19577e-13, No Iterations 1
DICPCG:  Solving for T, Initial residual = 8.45729e-13, Final residual = 8.45729e-13, No Iterations 0
DICPCG:  Solving for T, Initial residual = 8.45729e-13, Final residual = 8.45729e-13, No Iterations 0
nonDiag.size()=512

U.size()=512

F.size()=512

F = normalisedF;

Selected 0 cells for refinement out of 512.
Selected 0 split points out of a possible 64.
mesh updated
Time = 0.055

DICPCG:  Solving for T, Initial residual = 0.0390553, Final residual = 8.13445e-13, No Iterations 1
DICPCG:  Solving for T, Initial residual = 7.55121e-13, Final residual = 7.55121e-13, No Iterations 0
DICPCG:  Solving for T, Initial residual = 7.55121e-13, Final residual = 7.55121e-13, No Iterations 0
nonDiag.size()=512

U.size()=512

F.size()=512

F = normalisedF;

Selected 0 cells for refinement out of 512.
Selected 0 split points out of a possible 64.
mesh updated
Time = 0.06

DICPCG:  Solving for T, Initial residual = 0.0350144, Final residual = 7.29279e-13, No Iterations 1
DICPCG:  Solving for T, Initial residual = 6.82093e-13, Final residual = 6.82093e-13, No Iterations 0
DICPCG:  Solving for T, Initial residual = 6.82093e-13, Final residual = 6.82093e-13, No Iterations 0
nonDiag.size()=512

U.size()=512

F.size()=512

F = normalisedF;

Selected 0 cells for refinement out of 512.
Selected 0 split points out of a possible 64.
mesh updated
Time = 0.065

DICPCG:  Solving for T, Initial residual = 0.0317313, Final residual = 6.60901e-13, No Iterations 1
DICPCG:  Solving for T, Initial residual = 6.21885e-13, Final residual = 6.21885e-13, No Iterations 0
DICPCG:  Solving for T, Initial residual = 6.21885e-13, Final residual = 6.21885e-13, No Iterations 0
nonDiag.size()=512

U.size()=512

F.size()=512

F = normalisedF;

Selected 0 cells for refinement out of 512.
Selected 0 split points out of a possible 64.
mesh updated
Time = 0.07

DICPCG:  Solving for T, Initial residual = 0.0290111, Final residual = 6.04246e-13, No Iterations 1
DICPCG:  Solving for T, Initial residual = 5.71443e-13, Final residual = 5.71443e-13, No Iterations 0
DICPCG:  Solving for T, Initial residual = 5.71443e-13, Final residual = 5.71443e-13, No Iterations 0
nonDiag.size()=512

U.size()=512

F.size()=512

F = normalisedF;

Selected 0 cells for refinement out of 512.
Selected 0 split points out of a possible 64.
mesh updated
Time = 0.075

DICPCG:  Solving for T, Initial residual = 0.0267205, Final residual = 5.56539e-13, No Iterations 1
DICPCG:  Solving for T, Initial residual = 5.28624e-13, Final residual = 5.28624e-13, No Iterations 0
DICPCG:  Solving for T, Initial residual = 5.28624e-13, Final residual = 5.28624e-13, No Iterations 0
nonDiag.size()=512

U.size()=512

F.size()=512

F = normalisedF;

Selected 0 cells for refinement out of 512.
Selected 0 split points out of a possible 64.
mesh updated
Time = 0.08

DICPCG:  Solving for T, Initial residual = 0.0247652, Final residual = 5.15811e-13, No Iterations 1
DICPCG:  Solving for T, Initial residual = 4.91725e-13, Final residual = 4.91725e-13, No Iterations 0
DICPCG:  Solving for T, Initial residual = 4.91725e-13, Final residual = 4.91725e-13, No Iterations 0
nonDiag.size()=512

U.size()=512

F.size()=512

F = normalisedF;

Selected 0 cells for refinement out of 512.
Selected 0 split points out of a possible 64.
mesh updated
Time = 0.085

DICPCG:  Solving for T, Initial residual = 0.0230766, Final residual = 4.80642e-13, No Iterations 1
DICPCG:  Solving for T, Initial residual = 4.59669e-13, Final residual = 4.59669e-13, No Iterations 0
DICPCG:  Solving for T, Initial residual = 4.59669e-13, Final residual = 4.59669e-13, No Iterations 0
nonDiag.size()=512

U.size()=512

F.size()=512

F = normalisedF;

Selected 0 cells for refinement out of 512.
Selected 0 split points out of a possible 64.
mesh updated
Time = 0.09

DICPCG:  Solving for T, Initial residual = 0.0216036, Final residual = 4.49961e-13, No Iterations 1
DICPCG:  Solving for T, Initial residual = 4.31514e-13, Final residual = 4.31514e-13, No Iterations 0
DICPCG:  Solving for T, Initial residual = 4.31514e-13, Final residual = 4.31514e-13, No Iterations 0
nonDiag.size()=512

U.size()=512

F.size()=512

F = normalisedF;

Selected 0 cells for refinement out of 512.
Selected 0 split points out of a possible 64.
mesh updated
Time = 0.095

DICPCG:  Solving for T, Initial residual = 0.0203073, Final residual = 4.22962e-13, No Iterations 1
DICPCG:  Solving for T, Initial residual = 4.06646e-13, Final residual = 4.06646e-13, No Iterations 0
DICPCG:  Solving for T, Initial residual = 4.06646e-13, Final residual = 4.06646e-13, No Iterations 0
nonDiag.size()=512

U.size()=512

F.size()=512

F = normalisedF;

Selected 0 cells for refinement out of 512.
Selected 0 split points out of a possible 64.
mesh updated
Time = 0.1

DICPCG:  Solving for T, Initial residual = 0.0191579, Final residual = 3.9902e-13, No Iterations 1
DICPCG:  Solving for T, Initial residual = 3.84453e-13, Final residual = 3.84453e-13, No Iterations 0
DICPCG:  Solving for T, Initial residual = 3.84453e-13, Final residual = 3.84453e-13, No Iterations 0
nonDiag.size()=512

U.size()=512

F.size()=512

F = normalisedF;

Selected 0 cells for refinement out of 512.
Selected 0 split points out of a possible 64.
mesh updated
Time = 0.105

DICPCG:  Solving for T, Initial residual = 0.0181316, Final residual = 3.77647e-13, No Iterations 1
DICPCG:  Solving for T, Initial residual = 3.64583e-13, Final residual = 3.64583e-13, No Iterations 0
DICPCG:  Solving for T, Initial residual = 3.64583e-13, Final residual = 3.64583e-13, No Iterations 0
nonDiag.size()=512

U.size()=512

F.size()=512

F = normalisedF;

Selected 0 cells for refinement out of 512.
Selected 0 split points out of a possible 64.
mesh updated
Time = 0.11

DICPCG:  Solving for T, Initial residual = 0.0172096, Final residual = 3.58445e-13, No Iterations 1
DICPCG:  Solving for T, Initial residual = 3.46673e-13, Final residual = 3.46673e-13, No Iterations 0
DICPCG:  Solving for T, Initial residual = 3.46673e-13, Final residual = 3.46673e-13, No Iterations 0
nonDiag.size()=512

U.size()=512

F.size()=512

F = normalisedF;

Selected 0 cells for refinement out of 512.
Selected 0 split points out of a possible 64.
mesh updated
Time = 0.115

DICPCG:  Solving for T, Initial residual = 0.016377, Final residual = 3.411e-13, No Iterations 1
DICPCG:  Solving for T, Initial residual = 3.30387e-13, Final residual = 3.30387e-13, No Iterations 0
DICPCG:  Solving for T, Initial residual = 3.30387e-13, Final residual = 3.30387e-13, No Iterations 0
nonDiag.size()=512

U.size()=512

F.size()=512

F = normalisedF;

Selected 0 cells for refinement out of 512.
Selected 0 split points out of a possible 64.
mesh updated
Time = 0.12

DICPCG:  Solving for T, Initial residual = 0.0156211, Final residual = 3.25357e-13, No Iterations 1
DICPCG:  Solving for T, Initial residual = 3.156e-13, Final residual = 3.156e-13, No Iterations 0
DICPCG:  Solving for T, Initial residual = 3.156e-13, Final residual = 3.156e-13, No Iterations 0
nonDiag.size()=512

U.size()=512

F.size()=512

F = normalisedF;

Selected 0 cells for refinement out of 512.
Selected 0 split points out of a possible 64.
mesh updated
Time = 0.125

DICPCG:  Solving for T, Initial residual = 0.014932, Final residual = 3.11007e-13, No Iterations 1
DICPCG:  Solving for T, Initial residual = 3.02098e-13, Final residual = 3.02098e-13, No Iterations 0
DICPCG:  Solving for T, Initial residual = 3.02098e-13, Final residual = 3.02098e-13, No Iterations 0
nonDiag.size()=512

U.size()=512

F.size()=512

F = normalisedF;

Selected 0 cells for refinement out of 512.
Selected 0 split points out of a possible 64.
mesh updated
Time = 0.13

DICPCG:  Solving for T, Initial residual = 0.0143011, Final residual = 2.97865e-13, No Iterations 1
DICPCG:  Solving for T, Initial residual = 2.89679e-13, Final residual = 2.89679e-13, No Iterations 0
DICPCG:  Solving for T, Initial residual = 2.89679e-13, Final residual = 2.89679e-13, No Iterations 0
nonDiag.size()=512

U.size()=512

F.size()=512

F = normalisedF;

Selected 0 cells for refinement out of 512.
Selected 0 split points out of a possible 64.
mesh updated
Time = 0.135

DICPCG:  Solving for T, Initial residual = 0.0137214, Final residual = 2.85792e-13, No Iterations 1
DICPCG:  Solving for T, Initial residual = 2.78206e-13, Final residual = 2.78206e-13, No Iterations 0
DICPCG:  Solving for T, Initial residual = 2.78206e-13, Final residual = 2.78206e-13, No Iterations 0
nonDiag.size()=512

U.size()=512

F.size()=512

F = normalisedF;

Selected 0 cells for refinement out of 512.
Selected 0 split points out of a possible 64.
mesh updated
Time = 0.14

DICPCG:  Solving for T, Initial residual = 0.0131869, Final residual = 2.74659e-13, No Iterations 1
DICPCG:  Solving for T, Initial residual = 2.67707e-13, Final residual = 2.67707e-13, No Iterations 0
DICPCG:  Solving for T, Initial residual = 2.67707e-13, Final residual = 2.67707e-13, No Iterations 0
nonDiag.size()=512

U.size()=512

F.size()=512

F = normalisedF;

Selected 0 cells for refinement out of 512.
Selected 0 split points out of a possible 64.
mesh updated
Time = 0.145

DICPCG:  Solving for T, Initial residual = 0.0126924, Final residual = 2.6436e-13, No Iterations 1
DICPCG:  Solving for T, Initial residual = 2.57883e-13, Final residual = 2.57883e-13, No Iterations 0
DICPCG:  Solving for T, Initial residual = 2.57883e-13, Final residual = 2.57883e-13, No Iterations 0
nonDiag.size()=512

U.size()=512

F.size()=512

F = normalisedF;

Selected 0 cells for refinement out of 512.
Selected 0 split points out of a possible 64.
mesh updated
Time = 0.15

DICPCG:  Solving for T, Initial residual = 0.0122337, Final residual = 2.54806e-13, No Iterations 1
DICPCG:  Solving for T, Initial residual = 2.488e-13, Final residual = 2.488e-13, No Iterations 0
DICPCG:  Solving for T, Initial residual = 2.488e-13, Final residual = 2.488e-13, No Iterations 0
nonDiag.size()=512

U.size()=512

F.size()=512

F = normalisedF;

Selected 0 cells for refinement out of 512.
Selected 0 split points out of a possible 64.
mesh updated
Time = 0.155

DICPCG:  Solving for T, Initial residual = 0.011807, Final residual = 2.45919e-13, No Iterations 1
DICPCG:  Solving for T, Initial residual = 2.40323e-13, Final residual = 2.40323e-13, No Iterations 0
DICPCG:  Solving for T, Initial residual = 2.40323e-13, Final residual = 2.40323e-13, No Iterations 0
nonDiag.size()=512

U.size()=512

F.size()=512

F = normalisedF;

Selected 0 cells for refinement out of 512.
Selected 0 split points out of a possible 64.
mesh updated
Time = 0.16

DICPCG:  Solving for T, Initial residual = 0.0114091, Final residual = 2.3763e-13, No Iterations 1
DICPCG:  Solving for T, Initial residual = 2.32383e-13, Final residual = 2.32383e-13, No Iterations 0
DICPCG:  Solving for T, Initial residual = 2.32383e-13, Final residual = 2.32383e-13, No Iterations 0
nonDiag.size()=512

U.size()=512

F.size()=512

F = normalisedF;

Selected 0 cells for refinement out of 512.
Selected 0 split points out of a possible 64.
mesh updated
Time = 0.165

DICPCG:  Solving for T, Initial residual = 0.0110371, Final residual = 2.29883e-13, No Iterations 1
DICPCG:  Solving for T, Initial residual = 2.24975e-13, Final residual = 2.24975e-13, No Iterations 0
DICPCG:  Solving for T, Initial residual = 2.24975e-13, Final residual = 2.24975e-13, No Iterations 0
nonDiag.size()=512

U.size()=512

F.size()=512

F = normalisedF;

Selected 0 cells for refinement out of 512.
Selected 0 split points out of a possible 64.
mesh updated
Time = 0.17

DICPCG:  Solving for T, Initial residual = 0.0106887, Final residual = 2.22624e-13, No Iterations 1
DICPCG:  Solving for T, Initial residual = 2.1801e-13, Final residual = 2.1801e-13, No Iterations 0
DICPCG:  Solving for T, Initial residual = 2.1801e-13, Final residual = 2.1801e-13, No Iterations 0
nonDiag.size()=512

U.size()=512

F.size()=512

F = normalisedF;

Selected 0 cells for refinement out of 512.
Selected 0 split points out of a possible 64.
mesh updated
Time = 0.175

DICPCG:  Solving for T, Initial residual = 0.0103615, Final residual = 2.15811e-13, No Iterations 1
DICPCG:  Solving for T, Initial residual = 2.1151e-13, Final residual = 2.1151e-13, No Iterations 0
DICPCG:  Solving for T, Initial residual = 2.1151e-13, Final residual = 2.1151e-13, No Iterations 0
nonDiag.size()=512

U.size()=512

F.size()=512

F = normalisedF;

Selected 0 cells for refinement out of 512.
Selected 0 split points out of a possible 64.
mesh updated
Time = 0.18

DICPCG:  Solving for T, Initial residual = 0.0100538, Final residual = 2.09403e-13, No Iterations 1
DICPCG:  Solving for T, Initial residual = 2.05314e-13, Final residual = 2.05314e-13, No Iterations 0
DICPCG:  Solving for T, Initial residual = 2.05314e-13, Final residual = 2.05314e-13, No Iterations 0
nonDiag.size()=512

U.size()=512

F.size()=512

F = normalisedF;

Selected 0 cells for refinement out of 512.
Selected 0 split points out of a possible 64.
mesh updated
Time = 0.185

DICPCG:  Solving for T, Initial residual = 0.00976387, Final residual = 2.03363e-13, No Iterations 1
DICPCG:  Solving for T, Initial residual = 1.995e-13, Final residual = 1.995e-13, No Iterations 0
DICPCG:  Solving for T, Initial residual = 1.995e-13, Final residual = 1.995e-13, No Iterations 0
nonDiag.size()=512

U.size()=512

F.size()=512

F = normalisedF;

Selected 0 cells for refinement out of 512.
Selected 0 split points out of a possible 64.
mesh updated
Time = 0.19

DICPCG:  Solving for T, Initial residual = 0.00949018, Final residual = 1.97661e-13, No Iterations 1
DICPCG:  Solving for T, Initial residual = 1.94047e-13, Final residual = 1.94047e-13, No Iterations 0
DICPCG:  Solving for T, Initial residual = 1.94047e-13, Final residual = 1.94047e-13, No Iterations 0
nonDiag.size()=512

U.size()=512

F.size()=512

F = normalisedF;

Selected 0 cells for refinement out of 512.
Selected 0 split points out of a possible 64.
mesh updated
Time = 0.195

DICPCG:  Solving for T, Initial residual = 0.00923142, Final residual = 1.92272e-13, No Iterations 1
DICPCG:  Solving for T, Initial residual = 1.88835e-13, Final residual = 1.88835e-13, No Iterations 0
DICPCG:  Solving for T, Initial residual = 1.88835e-13, Final residual = 1.88835e-13, No Iterations 0
nonDiag.size()=512

U.size()=512

F.size()=512

F = normalisedF;

Selected 0 cells for refinement out of 512.
Selected 0 split points out of a possible 64.
mesh updated
Time = 0.2

DICPCG:  Solving for T, Initial residual = 0.0089864, Final residual = 1.8717e-13, No Iterations 1
DICPCG:  Solving for T, Initial residual = 1.83911e-13, Final residual = 1.83911e-13, No Iterations 0
DICPCG:  Solving for T, Initial residual = 1.83911e-13, Final residual = 1.83911e-13, No Iterations 0
nonDiag.size()=512

U.size()=512

F.size()=512

F = normalisedF;

Selected 0 cells for refinement out of 512.
Selected 0 split points out of a possible 64.
mesh updated
Time = 0.205

DICPCG:  Solving for T, Initial residual = 0.00875405, Final residual = 1.8233e-13, No Iterations 1
DICPCG:  Solving for T, Initial residual = 1.79242e-13, Final residual = 1.79242e-13, No Iterations 0
DICPCG:  Solving for T, Initial residual = 1.79242e-13, Final residual = 1.79242e-13, No Iterations 0
nonDiag.size()=512

U.size()=512

F.size()=512

F = normalisedF;

Selected 0 cells for refinement out of 512.
Selected 0 split points out of a possible 64.
mesh updated
Time = 0.21

DICPCG:  Solving for T, Initial residual = 0.00853342, Final residual = 1.77735e-13, No Iterations 1
DICPCG:  Solving for T, Initial residual = 1.74788e-13, Final residual = 1.74788e-13, No Iterations 0
DICPCG:  Solving for T, Initial residual = 1.74788e-13, Final residual = 1.74788e-13, No Iterations 0
nonDiag.size()=512

U.size()=512

F.size()=512

F = normalisedF;

Selected 0 cells for refinement out of 512.
Selected 0 split points out of a possible 64.
mesh updated
Time = 0.215

DICPCG:  Solving for T, Initial residual = 0.00832364, Final residual = 1.73365e-13, No Iterations 1
DICPCG:  Solving for T, Initial residual = 1.7055e-13, Final residual = 1.7055e-13, No Iterations 0
DICPCG:  Solving for T, Initial residual = 1.7055e-13, Final residual = 1.7055e-13, No Iterations 0
nonDiag.size()=512

U.size()=512

F.size()=512

F = normalisedF;

Selected 0 cells for refinement out of 512.
Selected 0 split points out of a possible 64.
mesh updated
Time = 0.22

DICPCG:  Solving for T, Initial residual = 0.00812393, Final residual = 1.69206e-13, No Iterations 1
DICPCG:  Solving for T, Initial residual = 1.66543e-13, Final residual = 1.66543e-13, No Iterations 0
DICPCG:  Solving for T, Initial residual = 1.66543e-13, Final residual = 1.66543e-13, No Iterations 0
nonDiag.size()=512

U.size()=512

F.size()=512

F = normalisedF;

Selected 0 cells for refinement out of 512.
Selected 0 split points out of a possible 64.
mesh updated
Time = 0.225

DICPCG:  Solving for T, Initial residual = 0.00793358, Final residual = 1.65241e-13, No Iterations 1
DICPCG:  Solving for T, Initial residual = 1.62693e-13, Final residual = 1.62693e-13, No Iterations 0
DICPCG:  Solving for T, Initial residual = 1.62693e-13, Final residual = 1.62693e-13, No Iterations 0
nonDiag.size()=512

U.size()=512

F.size()=512

F = normalisedF;

Selected 0 cells for refinement out of 512.
Selected 0 split points out of a possible 64.
mesh updated
Time = 0.23

DICPCG:  Solving for T, Initial residual = 0.00775195, Final residual = 1.61458e-13, No Iterations 1
DICPCG:  Solving for T, Initial residual = 1.59031e-13, Final residual = 1.59031e-13, No Iterations 0
DICPCG:  Solving for T, Initial residual = 1.59031e-13, Final residual = 1.59031e-13, No Iterations 0
nonDiag.size()=512

U.size()=512

F.size()=512

F = normalisedF;

Selected 0 cells for refinement out of 512.
Selected 0 split points out of a possible 64.
mesh updated
Time = 0.235

DICPCG:  Solving for T, Initial residual = 0.00757845, Final residual = 1.57845e-13, No Iterations 1
DICPCG:  Solving for T, Initial residual = 1.55522e-13, Final residual = 1.55522e-13, No Iterations 0
DICPCG:  Solving for T, Initial residual = 1.55522e-13, Final residual = 1.55522e-13, No Iterations 0
nonDiag.size()=512

U.size()=512

F.size()=512

F = normalisedF;

Selected 0 cells for refinement out of 512.
Selected 0 split points out of a possible 64.
mesh updated
Time = 0.24

DICPCG:  Solving for T, Initial residual = 0.00741256, Final residual = 1.5439e-13, No Iterations 1
DICPCG:  Solving for T, Initial residual = 1.52158e-13, Final residual = 1.52158e-13, No Iterations 0
DICPCG:  Solving for T, Initial residual = 1.52158e-13, Final residual = 1.52158e-13, No Iterations 0
nonDiag.size()=512

U.size()=512

F.size()=512

F = normalisedF;

Selected 0 cells for refinement out of 512.
Selected 0 split points out of a possible 64.
mesh updated
Time = 0.245

DICPCG:  Solving for T, Initial residual = 0.00725377, Final residual = 1.51081e-13, No Iterations 1
DICPCG:  Solving for T, Initial residual = 1.48964e-13, Final residual = 1.48964e-13, No Iterations 0
DICPCG:  Solving for T, Initial residual = 1.48964e-13, Final residual = 1.48964e-13, No Iterations 0
nonDiag.size()=512

U.size()=512

F.size()=512

F = normalisedF;

Selected 0 cells for refinement out of 512.
Selected 0 split points out of a possible 64.
mesh updated
Time = 0.25

DICPCG:  Solving for T, Initial residual = 0.00710164, Final residual = 1.47913e-13, No Iterations 1
DICPCG:  Solving for T, Initial residual = 1.4587e-13, Final residual = 1.4587e-13, No Iterations 0
DICPCG:  Solving for T, Initial residual = 1.4587e-13, Final residual = 1.4587e-13, No Iterations 0
nonDiag.size()=512

U.size()=512

F.size()=512

F = normalisedF;

Selected 0 cells for refinement out of 512.
Selected 0 split points out of a possible 64.
mesh updated
Time = 0.255

DICPCG:  Solving for T, Initial residual = 0.00695577, Final residual = 1.44875e-13, No Iterations 1
DICPCG:  Solving for T, Initial residual = 1.42912e-13, Final residual = 1.42912e-13, No Iterations 0
DICPCG:  Solving for T, Initial residual = 1.42912e-13, Final residual = 1.42912e-13, No Iterations 0
nonDiag.size()=512

U.size()=512

F.size()=512

F = normalisedF;

Selected 0 cells for refinement out of 512.
Selected 0 split points out of a possible 64.
mesh updated
Time = 0.26

DICPCG:  Solving for T, Initial residual = 0.00681577, Final residual = 1.41959e-13, No Iterations 1
DICPCG:  Solving for T, Initial residual = 1.401e-13, Final residual = 1.401e-13, No Iterations 0
DICPCG:  Solving for T, Initial residual = 1.401e-13, Final residual = 1.401e-13, No Iterations 0
nonDiag.size()=512

U.size()=512

F.size()=512

F = normalisedF;

Selected 0 cells for refinement out of 512.
Selected 0 split points out of a possible 64.
mesh updated
Time = 0.265

DICPCG:  Solving for T, Initial residual = 0.0066813, Final residual = 1.39159e-13, No Iterations 1
DICPCG:  Solving for T, Initial residual = 1.37353e-13, Final residual = 1.37353e-13, No Iterations 0
DICPCG:  Solving for T, Initial residual = 1.37353e-13, Final residual = 1.37353e-13, No Iterations 0
nonDiag.size()=512

U.size()=512

F.size()=512

F = normalisedF;

Selected 0 cells for refinement out of 512.
Selected 0 split points out of a possible 64.
mesh updated
Time = 0.27

DICPCG:  Solving for T, Initial residual = 0.00655204, Final residual = 1.36466e-13, No Iterations 1
DICPCG:  Solving for T, Initial residual = 1.34721e-13, Final residual = 1.34721e-13, No Iterations 0
DICPCG:  Solving for T, Initial residual = 1.34721e-13, Final residual = 1.34721e-13, No Iterations 0
nonDiag.size()=512

U.size()=512

F.size()=512

F = normalisedF;

Selected 0 cells for refinement out of 512.
Selected 0 split points out of a possible 64.
mesh updated
Time = 0.275

DICPCG:  Solving for T, Initial residual = 0.00642768, Final residual = 1.33875e-13, No Iterations 1
DICPCG:  Solving for T, Initial residual = 1.32199e-13, Final residual = 1.32199e-13, No Iterations 0
DICPCG:  Solving for T, Initial residual = 1.32199e-13, Final residual = 1.32199e-13, No Iterations 0
nonDiag.size()=512

U.size()=512

F.size()=512

F = normalisedF;

Selected 0 cells for refinement out of 512.
Selected 0 split points out of a possible 64.
mesh updated
Time = 0.28

DICPCG:  Solving for T, Initial residual = 0.00630796, Final residual = 1.31382e-13, No Iterations 1
DICPCG:  Solving for T, Initial residual = 1.29773e-13, Final residual = 1.29773e-13, No Iterations 0
DICPCG:  Solving for T, Initial residual = 1.29773e-13, Final residual = 1.29773e-13, No Iterations 0
nonDiag.size()=512

U.size()=512

F.size()=512

F = normalisedF;

Selected 0 cells for refinement out of 512.
Selected 0 split points out of a possible 64.
mesh updated
Time = 0.285

DICPCG:  Solving for T, Initial residual = 0.00619261, Final residual = 1.2898e-13, No Iterations 1
DICPCG:  Solving for T, Initial residual = 1.27428e-13, Final residual = 1.27428e-13, No Iterations 0
DICPCG:  Solving for T, Initial residual = 1.27428e-13, Final residual = 1.27428e-13, No Iterations 0
nonDiag.size()=512

U.size()=512

F.size()=512

F = normalisedF;

Selected 0 cells for refinement out of 512.
Selected 0 split points out of a possible 64.
mesh updated
Time = 0.29

DICPCG:  Solving for T, Initial residual = 0.00608142, Final residual = 1.26664e-13, No Iterations 1
DICPCG:  Solving for T, Initial residual = 1.25149e-13, Final residual = 1.25149e-13, No Iterations 0
DICPCG:  Solving for T, Initial residual = 1.25149e-13, Final residual = 1.25149e-13, No Iterations 0
nonDiag.size()=512

U.size()=512

F.size()=512

F = normalisedF;

Selected 0 cells for refinement out of 512.
Selected 0 split points out of a possible 64.
mesh updated
Time = 0.295

DICPCG:  Solving for T, Initial residual = 0.00597414, Final residual = 1.2443e-13, No Iterations 1
DICPCG:  Solving for T, Initial residual = 1.22989e-13, Final residual = 1.22989e-13, No Iterations 0
DICPCG:  Solving for T, Initial residual = 1.22989e-13, Final residual = 1.22989e-13, No Iterations 0
nonDiag.size()=512

U.size()=512

F.size()=512

F = normalisedF;

Selected 0 cells for refinement out of 512.
Selected 0 split points out of a possible 64.
mesh updated
Time = 0.3

DICPCG:  Solving for T, Initial residual = 0.00587059, Final residual = 1.22273e-13, No Iterations 1
DICPCG:  Solving for T, Initial residual = 1.20879e-13, Final residual = 1.20879e-13, No Iterations 0
DICPCG:  Solving for T, Initial residual = 1.20879e-13, Final residual = 1.20879e-13, No Iterations 0
nonDiag.size()=512

U.size()=512

F.size()=512

F = normalisedF;

Selected 0 cells for refinement out of 512.
Selected 0 split points out of a possible 64.
mesh updated
Time = 0.305

DICPCG:  Solving for T, Initial residual = 0.00577057, Final residual = 1.20191e-13, No Iterations 1
DICPCG:  Solving for T, Initial residual = 1.18836e-13, Final residual = 1.18836e-13, No Iterations 0
DICPCG:  Solving for T, Initial residual = 1.18836e-13, Final residual = 1.18836e-13, No Iterations 0
nonDiag.size()=512

U.size()=512

F.size()=512

F = normalisedF;

Selected 0 cells for refinement out of 512.
Selected 0 split points out of a possible 64.
mesh updated
Time = 0.31

DICPCG:  Solving for T, Initial residual = 0.0056739, Final residual = 1.18177e-13, No Iterations 1
DICPCG:  Solving for T, Initial residual = 1.1688e-13, Final residual = 1.1688e-13, No Iterations 0
DICPCG:  Solving for T, Initial residual = 1.1688e-13, Final residual = 1.1688e-13, No Iterations 0
nonDiag.size()=512

U.size()=512

F.size()=512

F = normalisedF;

Selected 0 cells for refinement out of 512.
Selected 0 split points out of a possible 64.
mesh updated
Time = 0.315

DICPCG:  Solving for T, Initial residual = 0.00558042, Final residual = 1.16229e-13, No Iterations 1
DICPCG:  Solving for T, Initial residual = 1.14977e-13, Final residual = 1.14977e-13, No Iterations 0
DICPCG:  Solving for T, Initial residual = 1.14977e-13, Final residual = 1.14977e-13, No Iterations 0
nonDiag.size()=512

U.size()=512

F.size()=512

F = normalisedF;

Selected 0 cells for refinement out of 512.
Selected 0 split points out of a possible 64.
mesh updated
Time = 0.32

DICPCG:  Solving for T, Initial residual = 0.00548997, Final residual = 1.14345e-13, No Iterations 1
DICPCG:  Solving for T, Initial residual = 1.13114e-13, Final residual = 1.13114e-13, No Iterations 0
DICPCG:  Solving for T, Initial residual = 1.13114e-13, Final residual = 1.13114e-13, No Iterations 0
nonDiag.size()=512

U.size()=512

F.size()=512

F = normalisedF;

Selected 0 cells for refinement out of 512.
Selected 0 split points out of a possible 64.
mesh updated
Time = 0.325

DICPCG:  Solving for T, Initial residual = 0.0054024, Final residual = 1.12521e-13, No Iterations 1
DICPCG:  Solving for T, Initial residual = 1.11367e-13, Final residual = 1.11367e-13, No Iterations 0
DICPCG:  Solving for T, Initial residual = 1.11367e-13, Final residual = 1.11367e-13, No Iterations 0
nonDiag.size()=512

U.size()=512

F.size()=512

F = normalisedF;

Selected 0 cells for refinement out of 512.
Selected 0 split points out of a possible 64.
mesh updated
Time = 0.33

DICPCG:  Solving for T, Initial residual = 0.00531759, Final residual = 1.10755e-13, No Iterations 1
DICPCG:  Solving for T, Initial residual = 1.09616e-13, Final residual = 1.09616e-13, No Iterations 0
DICPCG:  Solving for T, Initial residual = 1.09616e-13, Final residual = 1.09616e-13, No Iterations 0
nonDiag.size()=512

U.size()=512

F.size()=512

F = normalisedF;

Selected 0 cells for refinement out of 512.
Selected 0 split points out of a possible 64.
mesh updated
Time = 0.335

DICPCG:  Solving for T, Initial residual = 0.0052354, Final residual = 1.09043e-13, No Iterations 1
DICPCG:  Solving for T, Initial residual = 1.07943e-13, Final residual = 1.07943e-13, No Iterations 0
DICPCG:  Solving for T, Initial residual = 1.07943e-13, Final residual = 1.07943e-13, No Iterations 0
nonDiag.size()=512

U.size()=512

F.size()=512

F = normalisedF;

Selected 0 cells for refinement out of 512.
Selected 0 split points out of a possible 64.
mesh updated
Time = 0.34

DICPCG:  Solving for T, Initial residual = 0.00515572, Final residual = 1.07384e-13, No Iterations 1
DICPCG:  Solving for T, Initial residual = 1.0632e-13, Final residual = 1.0632e-13, No Iterations 0
DICPCG:  Solving for T, Initial residual = 1.0632e-13, Final residual = 1.0632e-13, No Iterations 0
nonDiag.size()=512

U.size()=512

F.size()=512

F = normalisedF;

Selected 0 cells for refinement out of 512.
Selected 0 split points out of a possible 64.
mesh updated
Time = 0.345

DICPCG:  Solving for T, Initial residual = 0.00507842, Final residual = 1.05774e-13, No Iterations 1
DICPCG:  Solving for T, Initial residual = 1.0474e-13, Final residual = 1.0474e-13, No Iterations 0
DICPCG:  Solving for T, Initial residual = 1.0474e-13, Final residual = 1.0474e-13, No Iterations 0
nonDiag.size()=512

U.size()=512

F.size()=512

F = normalisedF;

Selected 0 cells for refinement out of 512.
Selected 0 split points out of a possible 64.
mesh updated
Time = 0.35

DICPCG:  Solving for T, Initial residual = 0.00500341, Final residual = 1.04212e-13, No Iterations 1
DICPCG:  Solving for T, Initial residual = 1.03215e-13, Final residual = 1.03215e-13, No Iterations 0
DICPCG:  Solving for T, Initial residual = 1.03215e-13, Final residual = 1.03215e-13, No Iterations 0
nonDiag.size()=512

U.size()=512

F.size()=512

F = normalisedF;

Selected 0 cells for refinement out of 512.
Selected 0 split points out of a possible 64.
mesh updated
Time = 0.355

DICPCG:  Solving for T, Initial residual = 0.00493058, Final residual = 1.02695e-13, No Iterations 1
DICPCG:  Solving for T, Initial residual = 1.01756e-13, Final residual = 1.01756e-13, No Iterations 0
DICPCG:  Solving for T, Initial residual = 1.01756e-13, Final residual = 1.01756e-13, No Iterations 0
nonDiag.size()=512

U.size()=512

F.size()=512

F = normalisedF;

Selected 0 cells for refinement out of 512.
Selected 0 split points out of a possible 64.
mesh updated
Time = 0.36

DICPCG:  Solving for T, Initial residual = 0.00485985, Final residual = 1.01222e-13, No Iterations 1
DICPCG:  Solving for T, Initial residual = 1.00291e-13, Final residual = 1.00291e-13, No Iterations 0
DICPCG:  Solving for T, Initial residual = 1.00291e-13, Final residual = 1.00291e-13, No Iterations 0
nonDiag.size()=512

U.size()=512

F.size()=512

F = normalisedF;

Selected 0 cells for refinement out of 512.
Selected 0 split points out of a possible 64.
mesh updated
Time = 0.365

DICPCG:  Solving for T, Initial residual = 0.00479112, Final residual = 9.97897e-14, No Iterations 1
DICPCG:  Solving for T, Initial residual = 9.88728e-14, Final residual = 9.88728e-14, No Iterations 0
DICPCG:  Solving for T, Initial residual = 9.88728e-14, Final residual = 9.88728e-14, No Iterations 0
nonDiag.size()=512

U.size()=512

F.size()=512

F = normalisedF;

Selected 0 cells for refinement out of 512.
Selected 0 split points out of a possible 64.
mesh updated
Time = 0.37

DICPCG:  Solving for T, Initial residual = 0.0047243, Final residual = 9.83985e-14, No Iterations 1
DICPCG:  Solving for T, Initial residual = 9.75051e-14, Final residual = 9.75051e-14, No Iterations 0
DICPCG:  Solving for T, Initial residual = 9.75051e-14, Final residual = 9.75051e-14, No Iterations 0
nonDiag.size()=512

U.size()=512

F.size()=512

F = normalisedF;

Selected 0 cells for refinement out of 512.
Selected 0 split points out of a possible 64.
mesh updated
Time = 0.375

DICPCG:  Solving for T, Initial residual = 0.00465933, Final residual = 9.70458e-14, No Iterations 1
DICPCG:  Solving for T, Initial residual = 9.6177e-14, Final residual = 9.6177e-14, No Iterations 0
DICPCG:  Solving for T, Initial residual = 9.6177e-14, Final residual = 9.6177e-14, No Iterations 0
nonDiag.size()=512

U.size()=512

F.size()=512

F = normalisedF;

Selected 0 cells for refinement out of 512.
Selected 0 split points out of a possible 64.
mesh updated
Time = 0.38

DICPCG:  Solving for T, Initial residual = 0.00459611, Final residual = 9.57286e-14, No Iterations 1
DICPCG:  Solving for T, Initial residual = 9.49109e-14, Final residual = 9.49109e-14, No Iterations 0
DICPCG:  Solving for T, Initial residual = 9.49109e-14, Final residual = 9.49109e-14, No Iterations 0
nonDiag.size()=512

U.size()=512

F.size()=512

F = normalisedF;

Selected 0 cells for refinement out of 512.
Selected 0 split points out of a possible 64.
mesh updated
Time = 0.385

DICPCG:  Solving for T, Initial residual = 0.0045346, Final residual = 9.44478e-14, No Iterations 1
DICPCG:  Solving for T, Initial residual = 9.36318e-14, Final residual = 9.36318e-14, No Iterations 0
DICPCG:  Solving for T, Initial residual = 9.36318e-14, Final residual = 9.36318e-14, No Iterations 0
nonDiag.size()=512

U.size()=512

F.size()=512

F = normalisedF;

Selected 0 cells for refinement out of 512.
Selected 0 split points out of a possible 64.
mesh updated
Time = 0.39

DICPCG:  Solving for T, Initial residual = 0.0044747, Final residual = 9.31997e-14, No Iterations 1
DICPCG:  Solving for T, Initial residual = 9.23972e-14, Final residual = 9.23972e-14, No Iterations 0
DICPCG:  Solving for T, Initial residual = 9.23972e-14, Final residual = 9.23972e-14, No Iterations 0
nonDiag.size()=512

U.size()=512

F.size()=512

F = normalisedF;

Selected 0 cells for refinement out of 512.
Selected 0 split points out of a possible 64.
mesh updated
Time = 0.395

DICPCG:  Solving for T, Initial residual = 0.00441637, Final residual = 9.19845e-14, No Iterations 1
DICPCG:  Solving for T, Initial residual = 9.12106e-14, Final residual = 9.12106e-14, No Iterations 0
DICPCG:  Solving for T, Initial residual = 9.12106e-14, Final residual = 9.12106e-14, No Iterations 0
nonDiag.size()=512

U.size()=512

F.size()=512

F = normalisedF;

Selected 0 cells for refinement out of 512.
Selected 0 split points out of a possible 64.
mesh updated
Time = 0.4

DICPCG:  Solving for T, Initial residual = 0.00435955, Final residual = 9.08014e-14, No Iterations 1
DICPCG:  Solving for T, Initial residual = 9.00487e-14, Final residual = 9.00487e-14, No Iterations 0
DICPCG:  Solving for T, Initial residual = 9.00487e-14, Final residual = 9.00487e-14, No Iterations 0
nonDiag.size()=512

U.size()=512

F.size()=512

F = normalisedF;

Selected 0 cells for refinement out of 512.
Selected 0 split points out of a possible 64.
mesh updated
Time = 0.405

DICPCG:  Solving for T, Initial residual = 0.00430416, Final residual = 8.9648e-14, No Iterations 1
DICPCG:  Solving for T, Initial residual = 8.89155e-14, Final residual = 8.89155e-14, No Iterations 0
DICPCG:  Solving for T, Initial residual = 8.89155e-14, Final residual = 8.89155e-14, No Iterations 0
nonDiag.size()=512

U.size()=512

F.size()=512

F = normalisedF;

Selected 0 cells for refinement out of 512.
Selected 0 split points out of a possible 64.
mesh updated
Time = 0.41

DICPCG:  Solving for T, Initial residual = 0.00425017, Final residual = 8.85229e-14, No Iterations 1
DICPCG:  Solving for T, Initial residual = 8.78171e-14, Final residual = 8.78171e-14, No Iterations 0
DICPCG:  Solving for T, Initial residual = 8.78171e-14, Final residual = 8.78171e-14, No Iterations 0
nonDiag.size()=512

U.size()=512

F.size()=512

F = normalisedF;

Selected 0 cells for refinement out of 512.
Selected 0 split points out of a possible 64.
mesh updated
Time = 0.415

DICPCG:  Solving for T, Initial residual = 0.00419752, Final residual = 8.74263e-14, No Iterations 1
DICPCG:  Solving for T, Initial residual = 8.67275e-14, Final residual = 8.67275e-14, No Iterations 0
DICPCG:  Solving for T, Initial residual = 8.67275e-14, Final residual = 8.67275e-14, No Iterations 0
nonDiag.size()=512

U.size()=512

F.size()=512

F = normalisedF;

Selected 0 cells for refinement out of 512.
Selected 0 split points out of a possible 64.
mesh updated
Time = 0.42

DICPCG:  Solving for T, Initial residual = 0.00414615, Final residual = 8.6356e-14, No Iterations 1
DICPCG:  Solving for T, Initial residual = 8.56745e-14, Final residual = 8.56745e-14, No Iterations 0
DICPCG:  Solving for T, Initial residual = 8.56745e-14, Final residual = 8.56745e-14, No Iterations 0
nonDiag.size()=512

U.size()=512

F.size()=512

F = normalisedF;

Selected 0 cells for refinement out of 512.
Selected 0 split points out of a possible 64.
mesh updated
Time = 0.425

DICPCG:  Solving for T, Initial residual = 0.00409603, Final residual = 8.53128e-14, No Iterations 1
DICPCG:  Solving for T, Initial residual = 8.46618e-14, Final residual = 8.46618e-14, No Iterations 0
DICPCG:  Solving for T, Initial residual = 8.46618e-14, Final residual = 8.46618e-14, No Iterations 0
nonDiag.size()=512

U.size()=512

F.size()=512

F = normalisedF;

Selected 0 cells for refinement out of 512.
Selected 0 split points out of a possible 64.
mesh updated
Time = 0.43

DICPCG:  Solving for T, Initial residual = 0.00404711, Final residual = 8.42937e-14, No Iterations 1
DICPCG:  Solving for T, Initial residual = 8.36487e-14, Final residual = 8.36487e-14, No Iterations 0
DICPCG:  Solving for T, Initial residual = 8.36487e-14, Final residual = 8.36487e-14, No Iterations 0
nonDiag.size()=512

U.size()=512

F.size()=512

F = normalisedF;

Selected 0 cells for refinement out of 512.
Selected 0 split points out of a possible 64.
mesh updated
Time = 0.435

DICPCG:  Solving for T, Initial residual = 0.00399934, Final residual = 8.32985e-14, No Iterations 1
DICPCG:  Solving for T, Initial residual = 8.26619e-14, Final residual = 8.26619e-14, No Iterations 0
DICPCG:  Solving for T, Initial residual = 8.26619e-14, Final residual = 8.26619e-14, No Iterations 0
nonDiag.size()=512

U.size()=512

F.size()=512

F = normalisedF;

Selected 0 cells for refinement out of 512.
Selected 0 split points out of a possible 64.
mesh updated
Time = 0.44

DICPCG:  Solving for T, Initial residual = 0.00395269, Final residual = 8.23266e-14, No Iterations 1
DICPCG:  Solving for T, Initial residual = 8.16896e-14, Final residual = 8.16896e-14, No Iterations 0
DICPCG:  Solving for T, Initial residual = 8.16896e-14, Final residual = 8.16896e-14, No Iterations 0
nonDiag.size()=512

U.size()=512

F.size()=512

F = normalisedF;

Selected 0 cells for refinement out of 512.
Selected 0 split points out of a possible 64.
mesh updated
Time = 0.445

DICPCG:  Solving for T, Initial residual = 0.00390711, Final residual = 8.13778e-14, No Iterations 1
DICPCG:  Solving for T, Initial residual = 8.07793e-14, Final residual = 8.07793e-14, No Iterations 0
DICPCG:  Solving for T, Initial residual = 8.07793e-14, Final residual = 8.07793e-14, No Iterations 0
nonDiag.size()=512

U.size()=512

F.size()=512

F = normalisedF;

Selected 0 cells for refinement out of 512.
Selected 0 split points out of a possible 64.
mesh updated
Time = 0.45

DICPCG:  Solving for T, Initial residual = 0.00386257, Final residual = 8.04495e-14, No Iterations 1
DICPCG:  Solving for T, Initial residual = 7.9862e-14, Final residual = 7.9862e-14, No Iterations 0
DICPCG:  Solving for T, Initial residual = 7.9862e-14, Final residual = 7.9862e-14, No Iterations 0
nonDiag.size()=512

U.size()=512

F.size()=512

F = normalisedF;

Selected 0 cells for refinement out of 512.
Selected 0 split points out of a possible 64.
mesh updated
Time = 0.455

DICPCG:  Solving for T, Initial residual = 0.00381904, Final residual = 7.95434e-14, No Iterations 1
DICPCG:  Solving for T, Initial residual = 7.89854e-14, Final residual = 7.89854e-14, No Iterations 0
DICPCG:  Solving for T, Initial residual = 7.89854e-14, Final residual = 7.89854e-14, No Iterations 0
nonDiag.size()=512

U.size()=512

F.size()=512

F = normalisedF;

Selected 0 cells for refinement out of 512.
Selected 0 split points out of a possible 64.
mesh updated
Time = 0.46

DICPCG:  Solving for T, Initial residual = 0.00377648, Final residual = 7.86571e-14, No Iterations 1
DICPCG:  Solving for T, Initial residual = 7.80967e-14, Final residual = 7.80967e-14, No Iterations 0
DICPCG:  Solving for T, Initial residual = 7.80967e-14, Final residual = 7.80967e-14, No Iterations 0
nonDiag.size()=512

U.size()=512

F.size()=512

F = normalisedF;

Selected 0 cells for refinement out of 512.
Selected 0 split points out of a possible 64.
mesh updated
Time = 0.465

DICPCG:  Solving for T, Initial residual = 0.00373486, Final residual = 7.77902e-14, No Iterations 1
DICPCG:  Solving for T, Initial residual = 7.72213e-14, Final residual = 7.72213e-14, No Iterations 0
DICPCG:  Solving for T, Initial residual = 7.72213e-14, Final residual = 7.72213e-14, No Iterations 0
nonDiag.size()=512

U.size()=512

F.size()=512

F = normalisedF;

Selected 0 cells for refinement out of 512.
Selected 0 split points out of a possible 64.
mesh updated
Time = 0.47

DICPCG:  Solving for T, Initial residual = 0.00369415, Final residual = 7.69421e-14, No Iterations 1
DICPCG:  Solving for T, Initial residual = 7.63876e-14, Final residual = 7.63876e-14, No Iterations 0
DICPCG:  Solving for T, Initial residual = 7.63876e-14, Final residual = 7.63876e-14, No Iterations 0
nonDiag.size()=512

U.size()=512

F.size()=512

F = normalisedF;

Selected 0 cells for refinement out of 512.
Selected 0 split points out of a possible 64.
mesh updated
Time = 0.475

DICPCG:  Solving for T, Initial residual = 0.00365431, Final residual = 7.61131e-14, No Iterations 1
DICPCG:  Solving for T, Initial residual = 7.55865e-14, Final residual = 7.55865e-14, No Iterations 0
DICPCG:  Solving for T, Initial residual = 7.55865e-14, Final residual = 7.55865e-14, No Iterations 0
nonDiag.size()=512

U.size()=512

F.size()=512

F = normalisedF;

Selected 0 cells for refinement out of 512.
Selected 0 split points out of a possible 64.
mesh updated
Time = 0.48

DICPCG:  Solving for T, Initial residual = 0.00361533, Final residual = 7.53007e-14, No Iterations 1
DICPCG:  Solving for T, Initial residual = 7.47919e-14, Final residual = 7.47919e-14, No Iterations 0
DICPCG:  Solving for T, Initial residual = 7.47919e-14, Final residual = 7.47919e-14, No Iterations 0
nonDiag.size()=512

U.size()=512

F.size()=512

F = normalisedF;

Selected 0 cells for refinement out of 512.
Selected 0 split points out of a possible 64.
mesh updated
Time = 0.485

DICPCG:  Solving for T, Initial residual = 0.00357717, Final residual = 7.4506e-14, No Iterations 1
DICPCG:  Solving for T, Initial residual = 7.40165e-14, Final residual = 7.40165e-14, No Iterations 0
DICPCG:  Solving for T, Initial residual = 7.40165e-14, Final residual = 7.40165e-14, No Iterations 0
nonDiag.size()=512

U.size()=512

F.size()=512

F = normalisedF;

Selected 0 cells for refinement out of 512.
Selected 0 split points out of a possible 64.
mesh updated
Time = 0.49

DICPCG:  Solving for T, Initial residual = 0.0035398, Final residual = 7.37272e-14, No Iterations 1
DICPCG:  Solving for T, Initial residual = 7.32344e-14, Final residual = 7.32344e-14, No Iterations 0
DICPCG:  Solving for T, Initial residual = 7.32344e-14, Final residual = 7.32344e-14, No Iterations 0
nonDiag.size()=512

U.size()=512

F.size()=512

F = normalisedF;

Selected 0 cells for refinement out of 512.
Selected 0 split points out of a possible 64.
mesh updated
Time = 0.495

DICPCG:  Solving for T, Initial residual = 0.00350321, Final residual = 7.29657e-14, No Iterations 1
DICPCG:  Solving for T, Initial residual = 7.24814e-14, Final residual = 7.24814e-14, No Iterations 0
DICPCG:  Solving for T, Initial residual = 7.24814e-14, Final residual = 7.24814e-14, No Iterations 0
nonDiag.size()=512

U.size()=512

F.size()=512

F = normalisedF;

Selected 0 cells for refinement out of 512.
Selected 0 split points out of a possible 64.
mesh updated
Time = 0.5

DICPCG:  Solving for T, Initial residual = 0.00346737, Final residual = 7.22189e-14, No Iterations 1
DICPCG:  Solving for T, Initial residual = 7.17436e-14, Final residual = 7.17436e-14, No Iterations 0
DICPCG:  Solving for T, Initial residual = 7.17436e-14, Final residual = 7.17436e-14, No Iterations 0
nonDiag.size()=512

U.size()=512

F.size()=512

F = normalisedF;

Selected 0 cells for refinement out of 512.
Selected 0 split points out of a possible 64.
mesh updated
Time = 0.505

DICPCG:  Solving for T, Initial residual = 0.00343226, Final residual = 7.14875e-14, No Iterations 1
DICPCG:  Solving for T, Initial residual = 7.10135e-14, Final residual = 7.10135e-14, No Iterations 0
DICPCG:  Solving for T, Initial residual = 7.10135e-14, Final residual = 7.10135e-14, No Iterations 0
nonDiag.size()=512

U.size()=512

F.size()=512

F = normalisedF;

Selected 0 cells for refinement out of 512.
Selected 0 split points out of a possible 64.
mesh updated
Time = 0.51

DICPCG:  Solving for T, Initial residual = 0.00339785, Final residual = 7.07703e-14, No Iterations 1
DICPCG:  Solving for T, Initial residual = 7.02938e-14, Final residual = 7.02938e-14, No Iterations 0
DICPCG:  Solving for T, Initial residual = 7.02938e-14, Final residual = 7.02938e-14, No Iterations 0
nonDiag.size()=512

U.size()=512

F.size()=512

F = normalisedF;

Selected 0 cells for refinement out of 512.
Selected 0 split points out of a possible 64.
mesh updated
Time = 0.515

DICPCG:  Solving for T, Initial residual = 0.00336413, Final residual = 7.00686e-14, No Iterations 1
DICPCG:  Solving for T, Initial residual = 6.96254e-14, Final residual = 6.96254e-14, No Iterations 0
DICPCG:  Solving for T, Initial residual = 6.96254e-14, Final residual = 6.96254e-14, No Iterations 0
nonDiag.size()=512

U.size()=512

F.size()=512

F = normalisedF;

Selected 0 cells for refinement out of 512.
Selected 0 split points out of a possible 64.
mesh updated
Time = 0.52

DICPCG:  Solving for T, Initial residual = 0.00333106, Final residual = 6.93799e-14, No Iterations 1
DICPCG:  Solving for T, Initial residual = 6.89598e-14, Final residual = 6.89598e-14, No Iterations 0
DICPCG:  Solving for T, Initial residual = 6.89598e-14, Final residual = 6.89598e-14, No Iterations 0
nonDiag.size()=512

U.size()=512

F.size()=512

F = normalisedF;

Selected 0 cells for refinement out of 512.
Selected 0 split points out of a possible 64.
mesh updated
Time = 0.525

DICPCG:  Solving for T, Initial residual = 0.00329865, Final residual = 6.87052e-14, No Iterations 1
DICPCG:  Solving for T, Initial residual = 6.82897e-14, Final residual = 6.82897e-14, No Iterations 0
DICPCG:  Solving for T, Initial residual = 6.82897e-14, Final residual = 6.82897e-14, No Iterations 0
nonDiag.size()=512

U.size()=512

F.size()=512

F = normalisedF;

Selected 0 cells for refinement out of 512.
Selected 0 split points out of a possible 64.
mesh updated
Time = 0.53

DICPCG:  Solving for T, Initial residual = 0.00326685, Final residual = 6.80423e-14, No Iterations 1
DICPCG:  Solving for T, Initial residual = 6.76246e-14, Final residual = 6.76246e-14, No Iterations 0
DICPCG:  Solving for T, Initial residual = 6.76246e-14, Final residual = 6.76246e-14, No Iterations 0
nonDiag.size()=512

U.size()=512

F.size()=512

F = normalisedF;

Selected 0 cells for refinement out of 512.
Selected 0 split points out of a possible 64.
mesh updated
Time = 0.535

DICPCG:  Solving for T, Initial residual = 0.00323567, Final residual = 6.73929e-14, No Iterations 1
DICPCG:  Solving for T, Initial residual = 6.69781e-14, Final residual = 6.69781e-14, No Iterations 0
DICPCG:  Solving for T, Initial residual = 6.69781e-14, Final residual = 6.69781e-14, No Iterations 0
nonDiag.size()=512

U.size()=512

F.size()=512

F = normalisedF;

Selected 0 cells for refinement out of 512.
Selected 0 split points out of a possible 64.
mesh updated
Time = 0.54

DICPCG:  Solving for T, Initial residual = 0.00320507, Final residual = 6.67553e-14, No Iterations 1
DICPCG:  Solving for T, Initial residual = 6.63399e-14, Final residual = 6.63399e-14, No Iterations 0
DICPCG:  Solving for T, Initial residual = 6.63399e-14, Final residual = 6.63399e-14, No Iterations 0
nonDiag.size()=512

U.size()=512

F.size()=512

F = normalisedF;

Selected 0 cells for refinement out of 512.
Selected 0 split points out of a possible 64.
mesh updated
Time = 0.545

DICPCG:  Solving for T, Initial residual = 0.00317505, Final residual = 6.61301e-14, No Iterations 1
DICPCG:  Solving for T, Initial residual = 6.57432e-14, Final residual = 6.57432e-14, No Iterations 0
DICPCG:  Solving for T, Initial residual = 6.57432e-14, Final residual = 6.57432e-14, No Iterations 0
nonDiag.size()=512

U.size()=512

F.size()=512

F = normalisedF;

Selected 0 cells for refinement out of 512.
Selected 0 split points out of a possible 64.
mesh updated
Time = 0.55

DICPCG:  Solving for T, Initial residual = 0.00314559, Final residual = 6.55169e-14, No Iterations 1
DICPCG:  Solving for T, Initial residual = 6.51282e-14, Final residual = 6.51282e-14, No Iterations 0
DICPCG:  Solving for T, Initial residual = 6.51282e-14, Final residual = 6.51282e-14, No Iterations 0
nonDiag.size()=512

U.size()=512

F.size()=512

F = normalisedF;

Selected 0 cells for refinement out of 512.
Selected 0 split points out of a possible 64.
mesh updated
Time = 0.555

DICPCG:  Solving for T, Initial residual = 0.00311667, Final residual = 6.49143e-14, No Iterations 1
DICPCG:  Solving for T, Initial residual = 6.45501e-14, Final residual = 6.45501e-14, No Iterations 0
DICPCG:  Solving for T, Initial residual = 6.45501e-14, Final residual = 6.45501e-14, No Iterations 0
nonDiag.size()=512

U.size()=512

F.size()=512

F = normalisedF;

Selected 0 cells for refinement out of 512.
Selected 0 split points out of a possible 64.
mesh updated
Time = 0.56

DICPCG:  Solving for T, Initial residual = 0.00308827, Final residual = 6.43234e-14, No Iterations 1
DICPCG:  Solving for T, Initial residual = 6.3942e-14, Final residual = 6.3942e-14, No Iterations 0
DICPCG:  Solving for T, Initial residual = 6.3942e-14, Final residual = 6.3942e-14, No Iterations 0
nonDiag.size()=512

U.size()=512

F.size()=512

F = normalisedF;

Selected 0 cells for refinement out of 512.
Selected 0 split points out of a possible 64.
mesh updated
Time = 0.565

DICPCG:  Solving for T, Initial residual = 0.00306039, Final residual = 6.37419e-14, No Iterations 1
DICPCG:  Solving for T, Initial residual = 6.33783e-14, Final residual = 6.33783e-14, No Iterations 0
DICPCG:  Solving for T, Initial residual = 6.33783e-14, Final residual = 6.33783e-14, No Iterations 0
nonDiag.size()=512

U.size()=512

F.size()=512

F = normalisedF;

Selected 0 cells for refinement out of 512.
Selected 0 split points out of a possible 64.
mesh updated
Time = 0.57

DICPCG:  Solving for T, Initial residual = 0.00303301, Final residual = 6.31722e-14, No Iterations 1
DICPCG:  Solving for T, Initial residual = 6.27984e-14, Final residual = 6.27984e-14, No Iterations 0
DICPCG:  Solving for T, Initial residual = 6.27984e-14, Final residual = 6.27984e-14, No Iterations 0
nonDiag.size()=512

U.size()=512

F.size()=512

F = normalisedF;

Selected 0 cells for refinement out of 512.
Selected 0 split points out of a possible 64.
mesh updated
Time = 0.575

DICPCG:  Solving for T, Initial residual = 0.00300612, Final residual = 6.26121e-14, No Iterations 1
DICPCG:  Solving for T, Initial residual = 6.225e-14, Final residual = 6.225e-14, No Iterations 0
DICPCG:  Solving for T, Initial residual = 6.225e-14, Final residual = 6.225e-14, No Iterations 0
nonDiag.size()=512

U.size()=512

F.size()=512

F = normalisedF;

Selected 0 cells for refinement out of 512.
Selected 0 split points out of a possible 64.
mesh updated
Time = 0.58

DICPCG:  Solving for T, Initial residual = 0.00297969, Final residual = 6.20613e-14, No Iterations 1
DICPCG:  Solving for T, Initial residual = 6.17134e-14, Final residual = 6.17134e-14, No Iterations 0
DICPCG:  Solving for T, Initial residual = 6.17134e-14, Final residual = 6.17134e-14, No Iterations 0
nonDiag.size()=512

U.size()=512

F.size()=512

F = normalisedF;

Selected 0 cells for refinement out of 512.
Selected 0 split points out of a possible 64.
mesh updated
Time = 0.585

DICPCG:  Solving for T, Initial residual = 0.00295373, Final residual = 6.15209e-14, No Iterations 1
DICPCG:  Solving for T, Initial residual = 6.11846e-14, Final residual = 6.11846e-14, No Iterations 0
DICPCG:  Solving for T, Initial residual = 6.11846e-14, Final residual = 6.11846e-14, No Iterations 0
nonDiag.size()=512

U.size()=512

F.size()=512

F = normalisedF;

Selected 0 cells for refinement out of 512.
Selected 0 split points out of a possible 64.
mesh updated
Time = 0.59

DICPCG:  Solving for T, Initial residual = 0.00292822, Final residual = 6.09899e-14, No Iterations 1
DICPCG:  Solving for T, Initial residual = 6.06631e-14, Final residual = 6.06631e-14, No Iterations 0
DICPCG:  Solving for T, Initial residual = 6.06631e-14, Final residual = 6.06631e-14, No Iterations 0
nonDiag.size()=512

U.size()=512

F.size()=512

F = normalisedF;

Selected 0 cells for refinement out of 512.
Selected 0 split points out of a possible 64.
mesh updated
Time = 0.595

DICPCG:  Solving for T, Initial residual = 0.00290315, Final residual = 6.04672e-14, No Iterations 1
DICPCG:  Solving for T, Initial residual = 6.01449e-14, Final residual = 6.01449e-14, No Iterations 0
DICPCG:  Solving for T, Initial residual = 6.01449e-14, Final residual = 6.01449e-14, No Iterations 0
nonDiag.size()=512

U.size()=512

F.size()=512

F = normalisedF;

Selected 0 cells for refinement out of 512.
Selected 0 split points out of a possible 64.
mesh updated
Time = 0.6

DICPCG:  Solving for T, Initial residual = 0.0028785, Final residual = 5.9954e-14, No Iterations 1
DICPCG:  Solving for T, Initial residual = 5.96337e-14, Final residual = 5.96337e-14, No Iterations 0
DICPCG:  Solving for T, Initial residual = 5.96337e-14, Final residual = 5.96337e-14, No Iterations 0
nonDiag.size()=512

U.size()=512

F.size()=512

F = normalisedF;

Selected 0 cells for refinement out of 512.
Selected 0 split points out of a possible 64.
mesh updated
Time = 0.605

DICPCG:  Solving for T, Initial residual = 0.00285426, Final residual = 5.94491e-14, No Iterations 1
DICPCG:  Solving for T, Initial residual = 5.91224e-14, Final residual = 5.91224e-14, No Iterations 0
DICPCG:  Solving for T, Initial residual = 5.91224e-14, Final residual = 5.91224e-14, No Iterations 0
nonDiag.size()=512

U.size()=512

F.size()=512

F = normalisedF;

Selected 0 cells for refinement out of 512.
Selected 0 split points out of a possible 64.
mesh updated
Time = 0.61

DICPCG:  Solving for T, Initial residual = 0.00283044, Final residual = 5.89523e-14, No Iterations 1
DICPCG:  Solving for T, Initial residual = 5.86568e-14, Final residual = 5.86568e-14, No Iterations 0
DICPCG:  Solving for T, Initial residual = 5.86568e-14, Final residual = 5.86568e-14, No Iterations 0
nonDiag.size()=512

U.size()=512

F.size()=512

F = normalisedF;

Selected 0 cells for refinement out of 512.
Selected 0 split points out of a possible 64.
mesh updated
Time = 0.615

DICPCG:  Solving for T, Initial residual = 0.002807, Final residual = 5.84644e-14, No Iterations 1
DICPCG:  Solving for T, Initial residual = 5.81539e-14, Final residual = 5.81539e-14, No Iterations 0
DICPCG:  Solving for T, Initial residual = 5.81539e-14, Final residual = 5.81539e-14, No Iterations 0
nonDiag.size()=512

U.size()=512

F.size()=512

F = normalisedF;

Selected 0 cells for refinement out of 512.
Selected 0 split points out of a possible 64.
mesh updated
Time = 0.62

DICPCG:  Solving for T, Initial residual = 0.00278395, Final residual = 5.79847e-14, No Iterations 1
DICPCG:  Solving for T, Initial residual = 5.76842e-14, Final residual = 5.76842e-14, No Iterations 0
DICPCG:  Solving for T, Initial residual = 5.76842e-14, Final residual = 5.76842e-14, No Iterations 0
nonDiag.size()=512

U.size()=512

F.size()=512

F = normalisedF;

Selected 0 cells for refinement out of 512.
Selected 0 split points out of a possible 64.
mesh updated
Time = 0.625

DICPCG:  Solving for T, Initial residual = 0.00276128, Final residual = 5.75123e-14, No Iterations 1
DICPCG:  Solving for T, Initial residual = 5.72082e-14, Final residual = 5.72082e-14, No Iterations 0
DICPCG:  Solving for T, Initial residual = 5.72082e-14, Final residual = 5.72082e-14, No Iterations 0
nonDiag.size()=512

U.size()=512

F.size()=512

F = normalisedF;

Selected 0 cells for refinement out of 512.
Selected 0 split points out of a possible 64.
mesh updated
Time = 0.63

DICPCG:  Solving for T, Initial residual = 0.00273898, Final residual = 5.70482e-14, No Iterations 1
DICPCG:  Solving for T, Initial residual = 5.67547e-14, Final residual = 5.67547e-14, No Iterations 0
DICPCG:  Solving for T, Initial residual = 5.67547e-14, Final residual = 5.67547e-14, No Iterations 0
nonDiag.size()=512

U.size()=512

F.size()=512

F = normalisedF;

Selected 0 cells for refinement out of 512.
Selected 0 split points out of a possible 64.
mesh updated
Time = 0.635

DICPCG:  Solving for T, Initial residual = 0.00271703, Final residual = 5.65908e-14, No Iterations 1
DICPCG:  Solving for T, Initial residual = 5.62964e-14, Final residual = 5.62964e-14, No Iterations 0
DICPCG:  Solving for T, Initial residual = 5.62964e-14, Final residual = 5.62964e-14, No Iterations 0
nonDiag.size()=512

U.size()=512

F.size()=512

F = normalisedF;

Selected 0 cells for refinement out of 512.
Selected 0 split points out of a possible 64.
mesh updated
Time = 0.64

DICPCG:  Solving for T, Initial residual = 0.00269543, Final residual = 5.6141e-14, No Iterations 1
DICPCG:  Solving for T, Initial residual = 5.58724e-14, Final residual = 5.58724e-14, No Iterations 0
DICPCG:  Solving for T, Initial residual = 5.58724e-14, Final residual = 5.58724e-14, No Iterations 0
nonDiag.size()=512

U.size()=512

F.size()=512

F = normalisedF;

Selected 0 cells for refinement out of 512.
Selected 0 split points out of a possible 64.
mesh updated
Time = 0.645

DICPCG:  Solving for T, Initial residual = 0.00267417, Final residual = 5.56981e-14, No Iterations 1
DICPCG:  Solving for T, Initial residual = 5.54191e-14, Final residual = 5.54191e-14, No Iterations 0
DICPCG:  Solving for T, Initial residual = 5.54191e-14, Final residual = 5.54191e-14, No Iterations 0
nonDiag.size()=512

U.size()=512

F.size()=512

F = normalisedF;

Selected 0 cells for refinement out of 512.
Selected 0 split points out of a possible 64.
mesh updated
Time = 0.65

DICPCG:  Solving for T, Initial residual = 0.00265325, Final residual = 5.52619e-14, No Iterations 1
DICPCG:  Solving for T, Initial residual = 5.4997e-14, Final residual = 5.4997e-14, No Iterations 0
DICPCG:  Solving for T, Initial residual = 5.4997e-14, Final residual = 5.4997e-14, No Iterations 0
nonDiag.size()=512

U.size()=512

F.size()=512

F = normalisedF;

Selected 0 cells for refinement out of 512.
Selected 0 split points out of a possible 64.
mesh updated
Time = 0.655

DICPCG:  Solving for T, Initial residual = 0.00263265, Final residual = 5.48333e-14, No Iterations 1
DICPCG:  Solving for T, Initial residual = 5.45795e-14, Final residual = 5.45795e-14, No Iterations 0
DICPCG:  Solving for T, Initial residual = 5.45795e-14, Final residual = 5.45795e-14, No Iterations 0
nonDiag.size()=512

U.size()=512

F.size()=512

F = normalisedF;

Selected 0 cells for refinement out of 512.
Selected 0 split points out of a possible 64.
mesh updated
Time = 0.66

DICPCG:  Solving for T, Initial residual = 0.00261237, Final residual = 5.44107e-14, No Iterations 1
DICPCG:  Solving for T, Initial residual = 5.41667e-14, Final residual = 5.41667e-14, No Iterations 0
DICPCG:  Solving for T, Initial residual = 5.41667e-14, Final residual = 5.41667e-14, No Iterations 0
nonDiag.size()=512

U.size()=512

F.size()=512

F = normalisedF;

Selected 0 cells for refinement out of 512.
Selected 0 split points out of a possible 64.
mesh updated
Time = 0.665

DICPCG:  Solving for T, Initial residual = 0.0025924, Final residual = 5.39952e-14, No Iterations 1
DICPCG:  Solving for T, Initial residual = 5.37931e-14, Final residual = 5.37931e-14, No Iterations 0
DICPCG:  Solving for T, Initial residual = 5.37931e-14, Final residual = 5.37931e-14, No Iterations 0
nonDiag.size()=512

U.size()=512

F.size()=512

F = normalisedF;

Selected 0 cells for refinement out of 512.
Selected 0 split points out of a possible 64.
mesh updated
Time = 0.67

DICPCG:  Solving for T, Initial residual = 0.00257273, Final residual = 5.35855e-14, No Iterations 1
DICPCG:  Solving for T, Initial residual = 5.33383e-14, Final residual = 5.33383e-14, No Iterations 0
DICPCG:  Solving for T, Initial residual = 5.33383e-14, Final residual = 5.33383e-14, No Iterations 0
nonDiag.size()=512

U.size()=512

F.size()=512

F = normalisedF;

Selected 0 cells for refinement out of 512.
Selected 0 split points out of a possible 64.
mesh updated
Time = 0.675

DICPCG:  Solving for T, Initial residual = 0.00255336, Final residual = 5.31818e-14, No Iterations 1
DICPCG:  Solving for T, Initial residual = 5.29644e-14, Final residual = 5.29644e-14, No Iterations 0
DICPCG:  Solving for T, Initial residual = 5.29644e-14, Final residual = 5.29644e-14, No Iterations 0
nonDiag.size()=512

U.size()=512

F.size()=512

F = normalisedF;

Selected 0 cells for refinement out of 512.
Selected 0 split points out of a possible 64.
mesh updated
Time = 0.68

DICPCG:  Solving for T, Initial residual = 0.00253428, Final residual = 5.27844e-14, No Iterations 1
DICPCG:  Solving for T, Initial residual = 5.25602e-14, Final residual = 5.25602e-14, No Iterations 0
DICPCG:  Solving for T, Initial residual = 5.25602e-14, Final residual = 5.25602e-14, No Iterations 0
nonDiag.size()=512

U.size()=512

F.size()=512

F = normalisedF;

Selected 0 cells for refinement out of 512.
Selected 0 split points out of a possible 64.
mesh updated
Time = 0.685

DICPCG:  Solving for T, Initial residual = 0.00251548, Final residual = 5.23931e-14, No Iterations 1
DICPCG:  Solving for T, Initial residual = 5.21751e-14, Final residual = 5.21751e-14, No Iterations 0
DICPCG:  Solving for T, Initial residual = 5.21751e-14, Final residual = 5.21751e-14, No Iterations 0
nonDiag.size()=512

U.size()=512

F.size()=512

F = normalisedF;

Selected 0 cells for refinement out of 512.
Selected 0 split points out of a possible 64.
mesh updated
Time = 0.69

DICPCG:  Solving for T, Initial residual = 0.00249696, Final residual = 5.20073e-14, No Iterations 1
DICPCG:  Solving for T, Initial residual = 5.18036e-14, Final residual = 5.18036e-14, No Iterations 0
DICPCG:  Solving for T, Initial residual = 5.18036e-14, Final residual = 5.18036e-14, No Iterations 0
nonDiag.size()=512

U.size()=512

F.size()=512

F = normalisedF;

Selected 0 cells for refinement out of 512.
Selected 0 split points out of a possible 64.
mesh updated
Time = 0.695

DICPCG:  Solving for T, Initial residual = 0.00247871, Final residual = 5.16269e-14, No Iterations 1
DICPCG:  Solving for T, Initial residual = 5.14344e-14, Final residual = 5.14344e-14, No Iterations 0
DICPCG:  Solving for T, Initial residual = 5.14344e-14, Final residual = 5.14344e-14, No Iterations 0
nonDiag.size()=512

U.size()=512

F.size()=512

F = normalisedF;

Selected 0 cells for refinement out of 512.
Selected 0 split points out of a possible 64.
mesh updated
Time = 0.7

DICPCG:  Solving for T, Initial residual = 0.00246073, Final residual = 5.12523e-14, No Iterations 1
DICPCG:  Solving for T, Initial residual = 5.10585e-14, Final residual = 5.10585e-14, No Iterations 0
DICPCG:  Solving for T, Initial residual = 5.10585e-14, Final residual = 5.10585e-14, No Iterations 0
nonDiag.size()=512

U.size()=512

F.size()=512

F = normalisedF;

Selected 0 cells for refinement out of 512.
Selected 0 split points out of a possible 64.
mesh updated
Time = 0.705

DICPCG:  Solving for T, Initial residual = 0.002443, Final residual = 5.08833e-14, No Iterations 1
DICPCG:  Solving for T, Initial residual = 5.06586e-14, Final residual = 5.06586e-14, No Iterations 0
DICPCG:  Solving for T, Initial residual = 5.06586e-14, Final residual = 5.06586e-14, No Iterations 0
nonDiag.size()=512

U.size()=512

F.size()=512

F = normalisedF;

Selected 0 cells for refinement out of 512.
Selected 0 split points out of a possible 64.
mesh updated
Time = 0.71

DICPCG:  Solving for T, Initial residual = 0.00242553, Final residual = 5.05199e-14, No Iterations 1
DICPCG:  Solving for T, Initial residual = 5.03223e-14, Final residual = 5.03223e-14, No Iterations 0
DICPCG:  Solving for T, Initial residual = 5.03223e-14, Final residual = 5.03223e-14, No Iterations 0
nonDiag.size()=512

U.size()=512

F.size()=512

F = normalisedF;

Selected 0 cells for refinement out of 512.
Selected 0 split points out of a possible 64.
mesh updated
Time = 0.715

DICPCG:  Solving for T, Initial residual = 0.00240831, Final residual = 5.01609e-14, No Iterations 1
DICPCG:  Solving for T, Initial residual = 4.99761e-14, Final residual = 4.99761e-14, No Iterations 0
DICPCG:  Solving for T, Initial residual = 4.99761e-14, Final residual = 4.99761e-14, No Iterations 0
nonDiag.size()=512

U.size()=512

F.size()=512

F = normalisedF;

Selected 0 cells for refinement out of 512.
Selected 0 split points out of a possible 64.
mesh updated
Time = 0.72

DICPCG:  Solving for T, Initial residual = 0.00239133, Final residual = 4.98067e-14, No Iterations 1
DICPCG:  Solving for T, Initial residual = 4.96595e-14, Final residual = 4.96595e-14, No Iterations 0
DICPCG:  Solving for T, Initial residual = 4.96595e-14, Final residual = 4.96595e-14, No Iterations 0
nonDiag.size()=512

U.size()=512

F.size()=512

F = normalisedF;

Selected 0 cells for refinement out of 512.
Selected 0 split points out of a possible 64.
mesh updated
Time = 0.725

DICPCG:  Solving for T, Initial residual = 0.00237458, Final residual = 4.94587e-14, No Iterations 1
DICPCG:  Solving for T, Initial residual = 4.92812e-14, Final residual = 4.92812e-14, No Iterations 0
DICPCG:  Solving for T, Initial residual = 4.92812e-14, Final residual = 4.92812e-14, No Iterations 0
nonDiag.size()=512

U.size()=512

F.size()=512

F = normalisedF;

Selected 0 cells for refinement out of 512.
Selected 0 split points out of a possible 64.
mesh updated
Time = 0.73

DICPCG:  Solving for T, Initial residual = 0.00235808, Final residual = 4.91146e-14, No Iterations 1
DICPCG:  Solving for T, Initial residual = 4.89176e-14, Final residual = 4.89176e-14, No Iterations 0
DICPCG:  Solving for T, Initial residual = 4.89176e-14, Final residual = 4.89176e-14, No Iterations 0
nonDiag.size()=512

U.size()=512

F.size()=512

F = normalisedF;

Selected 0 cells for refinement out of 512.
Selected 0 split points out of a possible 64.
mesh updated
Time = 0.735

DICPCG:  Solving for T, Initial residual = 0.0023418, Final residual = 4.87752e-14, No Iterations 1
DICPCG:  Solving for T, Initial residual = 4.85968e-14, Final residual = 4.85968e-14, No Iterations 0
DICPCG:  Solving for T, Initial residual = 4.85968e-14, Final residual = 4.85968e-14, No Iterations 0
nonDiag.size()=512

U.size()=512

F.size()=512

F = normalisedF;

Selected 0 cells for refinement out of 512.
Selected 0 split points out of a possible 64.
mesh updated
Time = 0.74

DICPCG:  Solving for T, Initial residual = 0.00232574, Final residual = 4.84409e-14, No Iterations 1
DICPCG:  Solving for T, Initial residual = 4.8249e-14, Final residual = 4.8249e-14, No Iterations 0
DICPCG:  Solving for T, Initial residual = 4.8249e-14, Final residual = 4.8249e-14, No Iterations 0
nonDiag.size()=512

U.size()=512

F.size()=512

F = normalisedF;

Selected 0 cells for refinement out of 512.
Selected 0 split points out of a possible 64.
mesh updated
Time = 0.745

DICPCG:  Solving for T, Initial residual = 0.0023099, Final residual = 4.81111e-14, No Iterations 1
DICPCG:  Solving for T, Initial residual = 4.79422e-14, Final residual = 4.79422e-14, No Iterations 0
DICPCG:  Solving for T, Initial residual = 4.79422e-14, Final residual = 4.79422e-14, No Iterations 0
nonDiag.size()=512

U.size()=512

F.size()=512

F = normalisedF;

Selected 0 cells for refinement out of 512.
Selected 0 split points out of a possible 64.
mesh updated
Time = 0.75

DICPCG:  Solving for T, Initial residual = 0.00229428, Final residual = 4.77856e-14, No Iterations 1
DICPCG:  Solving for T, Initial residual = 4.76092e-14, Final residual = 4.76092e-14, No Iterations 0
DICPCG:  Solving for T, Initial residual = 4.76092e-14, Final residual = 4.76092e-14, No Iterations 0
nonDiag.size()=512

U.size()=512

F.size()=512

F = normalisedF;

Selected 0 cells for refinement out of 512.
Selected 0 split points out of a possible 64.
mesh updated
Time = 0.755

DICPCG:  Solving for T, Initial residual = 0.00227886, Final residual = 4.74644e-14, No Iterations 1
DICPCG:  Solving for T, Initial residual = 4.73122e-14, Final residual = 4.73122e-14, No Iterations 0
DICPCG:  Solving for T, Initial residual = 4.73122e-14, Final residual = 4.73122e-14, No Iterations 0
nonDiag.size()=512

U.size()=512

F.size()=512

F = normalisedF;

Selected 0 cells for refinement out of 512.
Selected 0 split points out of a possible 64.
mesh updated
Time = 0.76

DICPCG:  Solving for T, Initial residual = 0.00226366, Final residual = 4.71478e-14, No Iterations 1
DICPCG:  Solving for T, Initial residual = 4.69904e-14, Final residual = 4.69904e-14, No Iterations 0
DICPCG:  Solving for T, Initial residual = 4.69904e-14, Final residual = 4.69904e-14, No Iterations 0
nonDiag.size()=512

U.size()=512

F.size()=512

F = normalisedF;

Selected 0 cells for refinement out of 512.
Selected 0 split points out of a possible 64.
mesh updated
Time = 0.765

DICPCG:  Solving for T, Initial residual = 0.00224865, Final residual = 4.68352e-14, No Iterations 1
DICPCG:  Solving for T, Initial residual = 4.66731e-14, Final residual = 4.66731e-14, No Iterations 0
DICPCG:  Solving for T, Initial residual = 4.66731e-14, Final residual = 4.66731e-14, No Iterations 0
nonDiag.size()=512

U.size()=512

F.size()=512

F = normalisedF;

Selected 0 cells for refinement out of 512.
Selected 0 split points out of a possible 64.
mesh updated
Time = 0.77

DICPCG:  Solving for T, Initial residual = 0.00223384, Final residual = 4.65266e-14, No Iterations 1
DICPCG:  Solving for T, Initial residual = 4.63864e-14, Final residual = 4.63864e-14, No Iterations 0
DICPCG:  Solving for T, Initial residual = 4.63864e-14, Final residual = 4.63864e-14, No Iterations 0
nonDiag.size()=512

U.size()=512

F.size()=512

F = normalisedF;

Selected 0 cells for refinement out of 512.
Selected 0 split points out of a possible 64.
mesh updated
Time = 0.775

DICPCG:  Solving for T, Initial residual = 0.00221923, Final residual = 4.62226e-14, No Iterations 1
DICPCG:  Solving for T, Initial residual = 4.60513e-14, Final residual = 4.60513e-14, No Iterations 0
DICPCG:  Solving for T, Initial residual = 4.60513e-14, Final residual = 4.60513e-14, No Iterations 0
nonDiag.size()=512

U.size()=512

F.size()=512

F = normalisedF;

Selected 0 cells for refinement out of 512.
Selected 0 split points out of a possible 64.
mesh updated
Time = 0.78

DICPCG:  Solving for T, Initial residual = 0.00220481, Final residual = 4.59224e-14, No Iterations 1
DICPCG:  Solving for T, Initial residual = 4.57612e-14, Final residual = 4.57612e-14, No Iterations 0
DICPCG:  Solving for T, Initial residual = 4.57612e-14, Final residual = 4.57612e-14, No Iterations 0
nonDiag.size()=512

U.size()=512

F.size()=512

F = normalisedF;

Selected 0 cells for refinement out of 512.
Selected 0 split points out of a possible 64.
mesh updated
Time = 0.785

DICPCG:  Solving for T, Initial residual = 0.00219057, Final residual = 4.56259e-14, No Iterations 1
DICPCG:  Solving for T, Initial residual = 4.54813e-14, Final residual = 4.54813e-14, No Iterations 0
DICPCG:  Solving for T, Initial residual = 4.54813e-14, Final residual = 4.54813e-14, No Iterations 0
nonDiag.size()=512

U.size()=512

F.size()=512

F = normalisedF;

Selected 0 cells for refinement out of 512.
Selected 0 split points out of a possible 64.
mesh updated
Time = 0.79

DICPCG:  Solving for T, Initial residual = 0.00217652, Final residual = 4.5333e-14, No Iterations 1
DICPCG:  Solving for T, Initial residual = 4.52009e-14, Final residual = 4.52009e-14, No Iterations 0
DICPCG:  Solving for T, Initial residual = 4.52009e-14, Final residual = 4.52009e-14, No Iterations 0
nonDiag.size()=512

U.size()=512

F.size()=512

F = normalisedF;

Selected 0 cells for refinement out of 512.
Selected 0 split points out of a possible 64.
mesh updated
Time = 0.795

DICPCG:  Solving for T, Initial residual = 0.00216264, Final residual = 4.50439e-14, No Iterations 1
DICPCG:  Solving for T, Initial residual = 4.4903e-14, Final residual = 4.4903e-14, No Iterations 0
DICPCG:  Solving for T, Initial residual = 4.4903e-14, Final residual = 4.4903e-14, No Iterations 0
nonDiag.size()=512

U.size()=512

F.size()=512

F = normalisedF;

Selected 0 cells for refinement out of 512.
Selected 0 split points out of a possible 64.
mesh updated
Time = 0.8

DICPCG:  Solving for T, Initial residual = 0.00214894, Final residual = 4.47587e-14, No Iterations 1
DICPCG:  Solving for T, Initial residual = 4.46045e-14, Final residual = 4.46045e-14, No Iterations 0
DICPCG:  Solving for T, Initial residual = 4.46045e-14, Final residual = 4.46045e-14, No Iterations 0
nonDiag.size()=512

U.size()=512

F.size()=512

F = normalisedF;

[...]
DICPCG:  Solving for T, Initial residual = 3.68736e-15, Final residual = 3.68736e-15, No Iterations 0
DICPCG:  Solving for T, Initial residual = 3.68736e-15, Final residual = 3.68736e-15, No Iterations 0
nonDiag.size()=512

U.size()=512

F.size()=512

F = normalisedF;

Selected 0 cells for refinement out of 512.
Selected 0 split points out of a possible 64.
mesh updated
Time = 9.805

DICPCG:  Solving for T, Initial residual = 0.000175636, Final residual = 3.66275e-15, No Iterations 1
DICPCG:  Solving for T, Initial residual = 3.69963e-15, Final residual = 3.69963e-15, No Iterations 0
DICPCG:  Solving for T, Initial residual = 3.69963e-15, Final residual = 3.69963e-15, No Iterations 0
nonDiag.size()=512

U.size()=512

F.size()=512

F = normalisedF;

Selected 0 cells for refinement out of 512.
Selected 0 split points out of a possible 64.
mesh updated
Time = 9.81

DICPCG:  Solving for T, Initial residual = 0.000175547, Final residual = 3.66093e-15, No Iterations 1
DICPCG:  Solving for T, Initial residual = 3.68721e-15, Final residual = 3.68721e-15, No Iterations 0
DICPCG:  Solving for T, Initial residual = 3.68721e-15, Final residual = 3.68721e-15, No Iterations 0
nonDiag.size()=512

U.size()=512

F.size()=512

F = normalisedF;

Selected 0 cells for refinement out of 512.
Selected 0 split points out of a possible 64.
mesh updated
Time = 9.815

DICPCG:  Solving for T, Initial residual = 0.000175459, Final residual = 3.65909e-15, No Iterations 1
DICPCG:  Solving for T, Initial residual = 3.69075e-15, Final residual = 3.69075e-15, No Iterations 0
DICPCG:  Solving for T, Initial residual = 3.69075e-15, Final residual = 3.69075e-15, No Iterations 0
nonDiag.size()=512

U.size()=512

F.size()=512

F = normalisedF;

Selected 0 cells for refinement out of 512.
Selected 0 split points out of a possible 64.
mesh updated
Time = 9.82

DICPCG:  Solving for T, Initial residual = 0.000175371, Final residual = 3.65727e-15, No Iterations 1
DICPCG:  Solving for T, Initial residual = 3.68641e-15, Final residual = 3.68641e-15, No Iterations 0
DICPCG:  Solving for T, Initial residual = 3.68641e-15, Final residual = 3.68641e-15, No Iterations 0
nonDiag.size()=512

U.size()=512

F.size()=512

F = normalisedF;

Selected 0 cells for refinement out of 512.
Selected 0 split points out of a possible 64.
mesh updated
Time = 9.825

DICPCG:  Solving for T, Initial residual = 0.000175284, Final residual = 3.65543e-15, No Iterations 1
DICPCG:  Solving for T, Initial residual = 3.68727e-15, Final residual = 3.68727e-15, No Iterations 0
DICPCG:  Solving for T, Initial residual = 3.68727e-15, Final residual = 3.68727e-15, No Iterations 0
nonDiag.size()=512

U.size()=512

F.size()=512

F = normalisedF;

Selected 0 cells for refinement out of 512.
Selected 0 split points out of a possible 64.
mesh updated
Time = 9.83

DICPCG:  Solving for T, Initial residual = 0.000175196, Final residual = 3.65361e-15, No Iterations 1
DICPCG:  Solving for T, Initial residual = 3.681e-15, Final residual = 3.681e-15, No Iterations 0
DICPCG:  Solving for T, Initial residual = 3.681e-15, Final residual = 3.681e-15, No Iterations 0
nonDiag.size()=512

U.size()=512

F.size()=512

F = normalisedF;

Selected 0 cells for refinement out of 512.
Selected 0 split points out of a possible 64.
mesh updated
Time = 9.835

DICPCG:  Solving for T, Initial residual = 0.000175108, Final residual = 3.65179e-15, No Iterations 1
DICPCG:  Solving for T, Initial residual = 3.6782e-15, Final residual = 3.6782e-15, No Iterations 0
DICPCG:  Solving for T, Initial residual = 3.6782e-15, Final residual = 3.6782e-15, No Iterations 0
nonDiag.size()=512

U.size()=512

F.size()=512

F = normalisedF;

Selected 0 cells for refinement out of 512.
Selected 0 split points out of a possible 64.
mesh updated
Time = 9.84

DICPCG:  Solving for T, Initial residual = 0.00017502, Final residual = 3.64998e-15, No Iterations 1
DICPCG:  Solving for T, Initial residual = 3.69105e-15, Final residual = 3.69105e-15, No Iterations 0
DICPCG:  Solving for T, Initial residual = 3.69105e-15, Final residual = 3.69105e-15, No Iterations 0
nonDiag.size()=512

U.size()=512

F.size()=512

F = normalisedF;

Selected 0 cells for refinement out of 512.
Selected 0 split points out of a possible 64.
mesh updated
Time = 9.845

DICPCG:  Solving for T, Initial residual = 0.000174933, Final residual = 3.64814e-15, No Iterations 1
DICPCG:  Solving for T, Initial residual = 3.67997e-15, Final residual = 3.67997e-15, No Iterations 0
DICPCG:  Solving for T, Initial residual = 3.67997e-15, Final residual = 3.67997e-15, No Iterations 0
nonDiag.size()=512

U.size()=512

F.size()=512

F = normalisedF;

Selected 0 cells for refinement out of 512.
Selected 0 split points out of a possible 64.
mesh updated
Time = 9.85

DICPCG:  Solving for T, Initial residual = 0.000174845, Final residual = 3.64633e-15, No Iterations 1
DICPCG:  Solving for T, Initial residual = 3.68789e-15, Final residual = 3.68789e-15, No Iterations 0
DICPCG:  Solving for T, Initial residual = 3.68789e-15, Final residual = 3.68789e-15, No Iterations 0
nonDiag.size()=512

U.size()=512

F.size()=512

F = normalisedF;

Selected 0 cells for refinement out of 512.
Selected 0 split points out of a possible 64.
mesh updated
Time = 9.855

DICPCG:  Solving for T, Initial residual = 0.000174758, Final residual = 3.64451e-15, No Iterations 1
DICPCG:  Solving for T, Initial residual = 3.66384e-15, Final residual = 3.66384e-15, No Iterations 0
DICPCG:  Solving for T, Initial residual = 3.66384e-15, Final residual = 3.66384e-15, No Iterations 0
nonDiag.size()=512

U.size()=512

F.size()=512

F = normalisedF;

Selected 0 cells for refinement out of 512.
Selected 0 split points out of a possible 64.
mesh updated
Time = 9.86

DICPCG:  Solving for T, Initial residual = 0.000174671, Final residual = 3.64268e-15, No Iterations 1
DICPCG:  Solving for T, Initial residual = 3.65644e-15, Final residual = 3.65644e-15, No Iterations 0
DICPCG:  Solving for T, Initial residual = 3.65644e-15, Final residual = 3.65644e-15, No Iterations 0
nonDiag.size()=512

U.size()=512

F.size()=512

F = normalisedF;

Selected 0 cells for refinement out of 512.
Selected 0 split points out of a possible 64.
mesh updated
Time = 9.865

DICPCG:  Solving for T, Initial residual = 0.000174584, Final residual = 3.6409e-15, No Iterations 1
DICPCG:  Solving for T, Initial residual = 3.66204e-15, Final residual = 3.66204e-15, No Iterations 0
DICPCG:  Solving for T, Initial residual = 3.66204e-15, Final residual = 3.66204e-15, No Iterations 0
nonDiag.size()=512

U.size()=512

F.size()=512

F = normalisedF;

Selected 0 cells for refinement out of 512.
Selected 0 split points out of a possible 64.
mesh updated
Time = 9.87

DICPCG:  Solving for T, Initial residual = 0.000174497, Final residual = 3.63907e-15, No Iterations 1
DICPCG:  Solving for T, Initial residual = 3.65332e-15, Final residual = 3.65332e-15, No Iterations 0
DICPCG:  Solving for T, Initial residual = 3.65332e-15, Final residual = 3.65332e-15, No Iterations 0
nonDiag.size()=512

U.size()=512

F.size()=512

F = normalisedF;

Selected 0 cells for refinement out of 512.
Selected 0 split points out of a possible 64.
mesh updated
Time = 9.875

DICPCG:  Solving for T, Initial residual = 0.00017441, Final residual = 3.63726e-15, No Iterations 1
DICPCG:  Solving for T, Initial residual = 3.66744e-15, Final residual = 3.66744e-15, No Iterations 0
DICPCG:  Solving for T, Initial residual = 3.66744e-15, Final residual = 3.66744e-15, No Iterations 0
nonDiag.size()=512

U.size()=512

F.size()=512

F = normalisedF;

Selected 0 cells for refinement out of 512.
Selected 0 split points out of a possible 64.
mesh updated
Time = 9.88

DICPCG:  Solving for T, Initial residual = 0.000174323, Final residual = 3.63545e-15, No Iterations 1
DICPCG:  Solving for T, Initial residual = 3.66683e-15, Final residual = 3.66683e-15, No Iterations 0
DICPCG:  Solving for T, Initial residual = 3.66683e-15, Final residual = 3.66683e-15, No Iterations 0
nonDiag.size()=512

U.size()=512

F.size()=512

F = normalisedF;

Selected 0 cells for refinement out of 512.
Selected 0 split points out of a possible 64.
mesh updated
Time = 9.885

DICPCG:  Solving for T, Initial residual = 0.000174236, Final residual = 3.63365e-15, No Iterations 1
DICPCG:  Solving for T, Initial residual = 3.65536e-15, Final residual = 3.65536e-15, No Iterations 0
DICPCG:  Solving for T, Initial residual = 3.65536e-15, Final residual = 3.65536e-15, No Iterations 0
nonDiag.size()=512

U.size()=512

F.size()=512

F = normalisedF;

Selected 0 cells for refinement out of 512.
Selected 0 split points out of a possible 64.
mesh updated
Time = 9.89

DICPCG:  Solving for T, Initial residual = 0.000174149, Final residual = 3.63184e-15, No Iterations 1
DICPCG:  Solving for T, Initial residual = 3.66206e-15, Final residual = 3.66206e-15, No Iterations 0
DICPCG:  Solving for T, Initial residual = 3.66206e-15, Final residual = 3.66206e-15, No Iterations 0
nonDiag.size()=512

U.size()=512

F.size()=512

F = normalisedF;

Selected 0 cells for refinement out of 512.
Selected 0 split points out of a possible 64.
mesh updated
Time = 9.895

DICPCG:  Solving for T, Initial residual = 0.000174063, Final residual = 3.63005e-15, No Iterations 1
DICPCG:  Solving for T, Initial residual = 3.67063e-15, Final residual = 3.67063e-15, No Iterations 0
DICPCG:  Solving for T, Initial residual = 3.67063e-15, Final residual = 3.67063e-15, No Iterations 0
nonDiag.size()=512

U.size()=512

F.size()=512

F = normalisedF;

Selected 0 cells for refinement out of 512.
Selected 0 split points out of a possible 64.
mesh updated
Time = 9.9

DICPCG:  Solving for T, Initial residual = 0.000173976, Final residual = 3.62823e-15, No Iterations 1
DICPCG:  Solving for T, Initial residual = 3.65841e-15, Final residual = 3.65841e-15, No Iterations 0
DICPCG:  Solving for T, Initial residual = 3.65841e-15, Final residual = 3.65841e-15, No Iterations 0
nonDiag.size()=512

U.size()=512

F.size()=512

F = normalisedF;

Selected 0 cells for refinement out of 512.
Selected 0 split points out of a possible 64.
mesh updated
Time = 9.905

DICPCG:  Solving for T, Initial residual = 0.00017389, Final residual = 3.62645e-15, No Iterations 1
DICPCG:  Solving for T, Initial residual = 3.66308e-15, Final residual = 3.66308e-15, No Iterations 0
DICPCG:  Solving for T, Initial residual = 3.66308e-15, Final residual = 3.66308e-15, No Iterations 0
nonDiag.size()=512

U.size()=512

F.size()=512

F = normalisedF;

Selected 0 cells for refinement out of 512.
Selected 0 split points out of a possible 64.
mesh updated
Time = 9.91

DICPCG:  Solving for T, Initial residual = 0.000173803, Final residual = 3.62464e-15, No Iterations 1
DICPCG:  Solving for T, Initial residual = 3.65993e-15, Final residual = 3.65993e-15, No Iterations 0
DICPCG:  Solving for T, Initial residual = 3.65993e-15, Final residual = 3.65993e-15, No Iterations 0
nonDiag.size()=512

U.size()=512

F.size()=512

F = normalisedF;

Selected 0 cells for refinement out of 512.
Selected 0 split points out of a possible 64.
mesh updated
Time = 9.915

DICPCG:  Solving for T, Initial residual = 0.000173717, Final residual = 3.62285e-15, No Iterations 1
DICPCG:  Solving for T, Initial residual = 3.66758e-15, Final residual = 3.66758e-15, No Iterations 0
DICPCG:  Solving for T, Initial residual = 3.66758e-15, Final residual = 3.66758e-15, No Iterations 0
nonDiag.size()=512

U.size()=512

F.size()=512

F = normalisedF;

Selected 0 cells for refinement out of 512.
Selected 0 split points out of a possible 64.
mesh updated
Time = 9.92

DICPCG:  Solving for T, Initial residual = 0.000173631, Final residual = 3.62106e-15, No Iterations 1
DICPCG:  Solving for T, Initial residual = 3.6494e-15, Final residual = 3.6494e-15, No Iterations 0
DICPCG:  Solving for T, Initial residual = 3.6494e-15, Final residual = 3.6494e-15, No Iterations 0
nonDiag.size()=512

U.size()=512

F.size()=512

F = normalisedF;

Selected 0 cells for refinement out of 512.
Selected 0 split points out of a possible 64.
mesh updated
Time = 9.925

DICPCG:  Solving for T, Initial residual = 0.000173545, Final residual = 3.61928e-15, No Iterations 1
DICPCG:  Solving for T, Initial residual = 3.64292e-15, Final residual = 3.64292e-15, No Iterations 0
DICPCG:  Solving for T, Initial residual = 3.64292e-15, Final residual = 3.64292e-15, No Iterations 0
nonDiag.size()=512

U.size()=512

F.size()=512

F = normalisedF;

Selected 0 cells for refinement out of 512.
Selected 0 split points out of a possible 64.
mesh updated
Time = 9.93

DICPCG:  Solving for T, Initial residual = 0.000173458, Final residual = 3.61749e-15, No Iterations 1
DICPCG:  Solving for T, Initial residual = 3.64337e-15, Final residual = 3.64337e-15, No Iterations 0
DICPCG:  Solving for T, Initial residual = 3.64337e-15, Final residual = 3.64337e-15, No Iterations 0
nonDiag.size()=512

U.size()=512

F.size()=512

F = normalisedF;

Selected 0 cells for refinement out of 512.
Selected 0 split points out of a possible 64.
mesh updated
Time = 9.935

DICPCG:  Solving for T, Initial residual = 0.000173373, Final residual = 3.6157e-15, No Iterations 1
DICPCG:  Solving for T, Initial residual = 3.64465e-15, Final residual = 3.64465e-15, No Iterations 0
DICPCG:  Solving for T, Initial residual = 3.64465e-15, Final residual = 3.64465e-15, No Iterations 0
nonDiag.size()=512

U.size()=512

F.size()=512

F = normalisedF;

Selected 0 cells for refinement out of 512.
Selected 0 split points out of a possible 64.
mesh updated
Time = 9.94

DICPCG:  Solving for T, Initial residual = 0.000173287, Final residual = 3.6139e-15, No Iterations 1
DICPCG:  Solving for T, Initial residual = 3.63169e-15, Final residual = 3.63169e-15, No Iterations 0
DICPCG:  Solving for T, Initial residual = 3.63169e-15, Final residual = 3.63169e-15, No Iterations 0
nonDiag.size()=512

U.size()=512

F.size()=512

F = normalisedF;

Selected 0 cells for refinement out of 512.
Selected 0 split points out of a possible 64.
mesh updated
Time = 9.945

DICPCG:  Solving for T, Initial residual = 0.000173201, Final residual = 3.61211e-15, No Iterations 1
DICPCG:  Solving for T, Initial residual = 3.63506e-15, Final residual = 3.63506e-15, No Iterations 0
DICPCG:  Solving for T, Initial residual = 3.63506e-15, Final residual = 3.63506e-15, No Iterations 0
nonDiag.size()=512

U.size()=512

F.size()=512

F = normalisedF;

Selected 0 cells for refinement out of 512.
Selected 0 split points out of a possible 64.
mesh updated
Time = 9.95

DICPCG:  Solving for T, Initial residual = 0.000173115, Final residual = 3.61035e-15, No Iterations 1
DICPCG:  Solving for T, Initial residual = 3.64644e-15, Final residual = 3.64644e-15, No Iterations 0
DICPCG:  Solving for T, Initial residual = 3.64644e-15, Final residual = 3.64644e-15, No Iterations 0
nonDiag.size()=512

U.size()=512

F.size()=512

F = normalisedF;

Selected 0 cells for refinement out of 512.
Selected 0 split points out of a possible 64.
mesh updated
Time = 9.955

DICPCG:  Solving for T, Initial residual = 0.00017303, Final residual = 3.60855e-15, No Iterations 1
DICPCG:  Solving for T, Initial residual = 3.63089e-15, Final residual = 3.63089e-15, No Iterations 0
DICPCG:  Solving for T, Initial residual = 3.63089e-15, Final residual = 3.63089e-15, No Iterations 0
nonDiag.size()=512

U.size()=512

F.size()=512

F = normalisedF;

Selected 0 cells for refinement out of 512.
Selected 0 split points out of a possible 64.
mesh updated
Time = 9.96

DICPCG:  Solving for T, Initial residual = 0.000172944, Final residual = 3.60678e-15, No Iterations 1
DICPCG:  Solving for T, Initial residual = 3.6327e-15, Final residual = 3.6327e-15, No Iterations 0
DICPCG:  Solving for T, Initial residual = 3.6327e-15, Final residual = 3.6327e-15, No Iterations 0
nonDiag.size()=512

U.size()=512

F.size()=512

F = normalisedF;

Selected 0 cells for refinement out of 512.
Selected 0 split points out of a possible 64.
mesh updated
Time = 9.965

DICPCG:  Solving for T, Initial residual = 0.000172859, Final residual = 3.605e-15, No Iterations 1
DICPCG:  Solving for T, Initial residual = 3.64425e-15, Final residual = 3.64425e-15, No Iterations 0
DICPCG:  Solving for T, Initial residual = 3.64425e-15, Final residual = 3.64425e-15, No Iterations 0
nonDiag.size()=512

U.size()=512

F.size()=512

F = normalisedF;

Selected 0 cells for refinement out of 512.
Selected 0 split points out of a possible 64.
mesh updated
Time = 9.97

DICPCG:  Solving for T, Initial residual = 0.000172773, Final residual = 3.60322e-15, No Iterations 1
DICPCG:  Solving for T, Initial residual = 3.64528e-15, Final residual = 3.64528e-15, No Iterations 0
DICPCG:  Solving for T, Initial residual = 3.64528e-15, Final residual = 3.64528e-15, No Iterations 0
nonDiag.size()=512

U.size()=512

F.size()=512

F = normalisedF;

Selected 0 cells for refinement out of 512.
Selected 0 split points out of a possible 64.
mesh updated
Time = 9.975

DICPCG:  Solving for T, Initial residual = 0.000172688, Final residual = 3.60146e-15, No Iterations 1
DICPCG:  Solving for T, Initial residual = 3.64364e-15, Final residual = 3.64364e-15, No Iterations 0
DICPCG:  Solving for T, Initial residual = 3.64364e-15, Final residual = 3.64364e-15, No Iterations 0
nonDiag.size()=512

U.size()=512

F.size()=512

F = normalisedF;

Selected 0 cells for refinement out of 512.
Selected 0 split points out of a possible 64.
mesh updated
Time = 9.98

DICPCG:  Solving for T, Initial residual = 0.000172603, Final residual = 3.59967e-15, No Iterations 1
DICPCG:  Solving for T, Initial residual = 3.65172e-15, Final residual = 3.65172e-15, No Iterations 0
DICPCG:  Solving for T, Initial residual = 3.65172e-15, Final residual = 3.65172e-15, No Iterations 0
nonDiag.size()=512

U.size()=512

F.size()=512

F = normalisedF;

Selected 0 cells for refinement out of 512.
Selected 0 split points out of a possible 64.
mesh updated
Time = 9.985

DICPCG:  Solving for T, Initial residual = 0.000172518, Final residual = 3.59793e-15, No Iterations 1
DICPCG:  Solving for T, Initial residual = 3.63651e-15, Final residual = 3.63651e-15, No Iterations 0
DICPCG:  Solving for T, Initial residual = 3.63651e-15, Final residual = 3.63651e-15, No Iterations 0
nonDiag.size()=512

U.size()=512

F.size()=512

F = normalisedF;

Selected 0 cells for refinement out of 512.
Selected 0 split points out of a possible 64.
mesh updated
Time = 9.99

DICPCG:  Solving for T, Initial residual = 0.000172433, Final residual = 3.59613e-15, No Iterations 1
DICPCG:  Solving for T, Initial residual = 3.63289e-15, Final residual = 3.63289e-15, No Iterations 0
DICPCG:  Solving for T, Initial residual = 3.63289e-15, Final residual = 3.63289e-15, No Iterations 0
nonDiag.size()=512

U.size()=512

F.size()=512

F = normalisedF;

Selected 0 cells for refinement out of 512.
Selected 0 split points out of a possible 64.
mesh updated
Time = 9.995

DICPCG:  Solving for T, Initial residual = 0.000172348, Final residual = 3.59439e-15, No Iterations 1
DICPCG:  Solving for T, Initial residual = 3.62615e-15, Final residual = 3.62615e-15, No Iterations 0
DICPCG:  Solving for T, Initial residual = 3.62615e-15, Final residual = 3.62615e-15, No Iterations 0
nonDiag.size()=512

U.size()=512

F.size()=512

F = normalisedF;

Selected 0 cells for refinement out of 512.
Selected 0 split points out of a possible 64.
mesh updated
Time = 10

DICPCG:  Solving for T, Initial residual = 0.000172263, Final residual = 3.59263e-15, No Iterations 1
DICPCG:  Solving for T, Initial residual = 3.61436e-15, Final residual = 3.61436e-15, No Iterations 0
DICPCG:  Solving for T, Initial residual = 3.61436e-15, Final residual = 3.61436e-15, No Iterations 0
nonDiag.size()=512

U.size()=512

F.size()=512

F = normalisedF;

Selected 0 cells for refinement out of 512.
Selected 0 split points out of a possible 64.
mesh updated
ExecutionTime = 9.64 s  ClockTime = 16 s

End

