/*---------------------------------------------------------------------------*\
| =========                 |                                                 |
| \\      /  F ield         | OpenFOAM: The Open Source CFD Toolbox           |
|  \\    /   O peration     | Version:  2.3.0                                 |
|   \\  /    A nd           | Web:      www.OpenFOAM.org                      |
|    \\/     M anipulation  |                                                 |
\*---------------------------------------------------------------------------*/
Build  : 2.3.0-f5222ca19ce6
Exec   : laplacianFoam
Date   : Dec 01 2014
Time   : 22:39:32
Host   : "debian-toshiba"
PID    : 23246
Case   : /home/jenek/laplacianFoamF/laplacianFoamF/case5cells
nProcs : 1
sigFpe : Enabling floating point exception trapping (FOAM_SIGFPE).
fileModificationChecking : Monitoring run-time modified files using timeStampMaster
allowSystemOperations : Disallowing user-supplied system call operations

// * * * * * * * * * * * * * * * * * * * * * * * * * * * * * * * * * * * * * //
Create time

Create mesh for time = 0

Reading field T

Reading transportProperties

Reading diffusivity DT


SIMPLE: convergence criteria
field T	 tolerance 0.0001


Calculating temperature distribution

Time = 0.005

DICPCG:  Solving for T, Initial residual = 1, Final residual = 0, No Iterations 1
DICPCG:  Solving for T, Initial residual = 0, Final residual = 0, No Iterations 0
DICPCG:  Solving for T, Initial residual = 0, Final residual = 0, No Iterations 0
ExecutionTime = 0.01 s  ClockTime = 0 s

Time = 0.01

DICPCG:  Solving for T, Initial residual = 1, Final residual = 0, No Iterations 1
DICPCG:  Solving for T, Initial residual = 0, Final residual = 0, No Iterations 0
DICPCG:  Solving for T, Initial residual = 0, Final residual = 0, No Iterations 0
ExecutionTime = 0.01 s  ClockTime = 0 s

Time = 0.015

DICPCG:  Solving for T, Initial residual = 1, Final residual = 0, No Iterations 1
DICPCG:  Solving for T, Initial residual = 0.999997, Final residual = 0, No Iterations 1
DICPCG:  Solving for T, Initial residual = 0, Final residual = 0, No Iterations 0
ExecutionTime = 0.01 s  ClockTime = 0 s

Time = 0.02

DICPCG:  Solving for T, Initial residual = 1, Final residual = 1.32453e-17, No Iterations 1
DICPCG:  Solving for T, Initial residual = 0.999999, Final residual = 0, No Iterations 1
DICPCG:  Solving for T, Initial residual = 0, Final residual = 0, No Iterations 0
ExecutionTime = 0.02 s  ClockTime = 0 s

Time = 0.025

DICPCG:  Solving for T, Initial residual = 1, Final residual = 0, No Iterations 1
DICPCG:  Solving for T, Initial residual = 0, Final residual = 0, No Iterations 0
DICPCG:  Solving for T, Initial residual = 0, Final residual = 0, No Iterations 0
ExecutionTime = 0.02 s  ClockTime = 0 s

Time = 0.03

DICPCG:  Solving for T, Initial residual = 1, Final residual = 1.32453e-17, No Iterations 1
DICPCG:  Solving for T, Initial residual = 0, Final residual = 0, No Iterations 0
DICPCG:  Solving for T, Initial residual = 0, Final residual = 0, No Iterations 0
ExecutionTime = 0.02 s  ClockTime = 0 s

Time = 0.035

DICPCG:  Solving for T, Initial residual = 1, Final residual = 0, No Iterations 1
DICPCG:  Solving for T, Initial residual = 0, Final residual = 0, No Iterations 0
DICPCG:  Solving for T, Initial residual = 0, Final residual = 0, No Iterations 0
ExecutionTime = 0.02 s  ClockTime = 0 s

Time = 0.04

DICPCG:  Solving for T, Initial residual = 1, Final residual = 0, No Iterations 1
DICPCG:  Solving for T, Initial residual = 0, Final residual = 0, No Iterations 0
DICPCG:  Solving for T, Initial residual = 0, Final residual = 0, No Iterations 0
ExecutionTime = 0.02 s  ClockTime = 0 s

Time = 0.045

DICPCG:  Solving for T, Initial residual = 1, Final residual = 1.32453e-17, No Iterations 1
DICPCG:  Solving for T, Initial residual = 0.999999, Final residual = 0, No Iterations 1
DICPCG:  Solving for T, Initial residual = 0, Final residual = 0, No Iterations 0
ExecutionTime = 0.03 s  ClockTime = 0 s

Time = 0.05

DICPCG:  Solving for T, Initial residual = 1, Final residual = 0, No Iterations 1
DICPCG:  Solving for T, Initial residual = 0, Final residual = 0, No Iterations 0
DICPCG:  Solving for T, Initial residual = 0, Final residual = 0, No Iterations 0
ExecutionTime = 0.03 s  ClockTime = 0 s

Time = 0.055

DICPCG:  Solving for T, Initial residual = 1, Final residual = 1.32453e-17, No Iterations 1
DICPCG:  Solving for T, Initial residual = 0, Final residual = 0, No Iterations 0
DICPCG:  Solving for T, Initial residual = 0, Final residual = 0, No Iterations 0
ExecutionTime = 0.03 s  ClockTime = 0 s

Time = 0.06

DICPCG:  Solving for T, Initial residual = 1, Final residual = 0, No Iterations 1
DICPCG:  Solving for T, Initial residual = 0, Final residual = 0, No Iterations 0
DICPCG:  Solving for T, Initial residual = 0, Final residual = 0, No Iterations 0
ExecutionTime = 0.03 s  ClockTime = 0 s

Time = 0.065

DICPCG:  Solving for T, Initial residual = 1, Final residual = 0, No Iterations 1
DICPCG:  Solving for T, Initial residual = 0, Final residual = 0, No Iterations 0
DICPCG:  Solving for T, Initial residual = 0, Final residual = 0, No Iterations 0
ExecutionTime = 0.03 s  ClockTime = 0 s

Time = 0.07

DICPCG:  Solving for T, Initial residual = 1, Final residual = 0, No Iterations 1
DICPCG:  Solving for T, Initial residual = 0.999999, Final residual = 0, No Iterations 1
DICPCG:  Solving for T, Initial residual = 0, Final residual = 0, No Iterations 0
ExecutionTime = 0.03 s  ClockTime = 0 s

Time = 0.075

DICPCG:  Solving for T, Initial residual = 1, Final residual = 0, No Iterations 1
DICPCG:  Solving for T, Initial residual = 0.999999, Final residual = 0, No Iterations 1
DICPCG:  Solving for T, Initial residual = 0, Final residual = 0, No Iterations 0
ExecutionTime = 0.04 s  ClockTime = 0 s

Time = 0.08

DICPCG:  Solving for T, Initial residual = 1, Final residual = 0, No Iterations 1
DICPCG:  Solving for T, Initial residual = 0, Final residual = 0, No Iterations 0
DICPCG:  Solving for T, Initial residual = 0, Final residual = 0, No Iterations 0
ExecutionTime = 0.04 s  ClockTime = 0 s

Time = 0.085

DICPCG:  Solving for T, Initial residual = 1, Final residual = 1.9227e-16, No Iterations 1
DICPCG:  Solving for T, Initial residual = 0, Final residual = 0, No Iterations 0
DICPCG:  Solving for T, Initial residual = 0, Final residual = 0, No Iterations 0
ExecutionTime = 0.04 s  ClockTime = 0 s

Time = 0.09

DICPCG:  Solving for T, Initial residual = 1, Final residual = 1.32453e-17, No Iterations 1
DICPCG:  Solving for T, Initial residual = 1, Final residual = 0, No Iterations 1
DICPCG:  Solving for T, Initial residual = 0, Final residual = 0, No Iterations 0
ExecutionTime = 0.04 s  ClockTime = 0 s

Time = 0.095

DICPCG:  Solving for T, Initial residual = 1, Final residual = 0, No Iterations 1
DICPCG:  Solving for T, Initial residual = 0, Final residual = 0, No Iterations 0
DICPCG:  Solving for T, Initial residual = 0, Final residual = 0, No Iterations 0
ExecutionTime = 0.04 s  ClockTime = 0 s

Time = 0.1

DICPCG:  Solving for T, Initial residual = 1, Final residual = 0, No Iterations 1
DICPCG:  Solving for T, Initial residual = 0, Final residual = 0, No Iterations 0
DICPCG:  Solving for T, Initial residual = 0, Final residual = 0, No Iterations 0
ExecutionTime = 0.04 s  ClockTime = 0 s

Time = 0.105

DICPCG:  Solving for T, Initial residual = 1, Final residual = 1.32453e-17, No Iterations 1
DICPCG:  Solving for T, Initial residual = 1, Final residual = 0, No Iterations 1
DICPCG:  Solving for T, Initial residual = 0, Final residual = 0, No Iterations 0
ExecutionTime = 0.04 s  ClockTime = 0 s

Time = 0.11

DICPCG:  Solving for T, Initial residual = 1, Final residual = 1.32453e-17, No Iterations 1
DICPCG:  Solving for T, Initial residual = 0, Final residual = 0, No Iterations 0
DICPCG:  Solving for T, Initial residual = 0, Final residual = 0, No Iterations 0
ExecutionTime = 0.04 s  ClockTime = 0 s

Time = 0.115

DICPCG:  Solving for T, Initial residual = 1, Final residual = 0, No Iterations 1
DICPCG:  Solving for T, Initial residual = 0, Final residual = 0, No Iterations 0
DICPCG:  Solving for T, Initial residual = 0, Final residual = 0, No Iterations 0
ExecutionTime = 0.05 s  ClockTime = 0 s

Time = 0.12

DICPCG:  Solving for T, Initial residual = 1, Final residual = 1.32453e-17, No Iterations 1
DICPCG:  Solving for T, Initial residual = 0, Final residual = 0, No Iterations 0
DICPCG:  Solving for T, Initial residual = 0, Final residual = 0, No Iterations 0
ExecutionTime = 0.05 s  ClockTime = 0 s

Time = 0.125

DICPCG:  Solving for T, Initial residual = 1, Final residual = 0, No Iterations 1
DICPCG:  Solving for T, Initial residual = 0, Final residual = 0, No Iterations 0
DICPCG:  Solving for T, Initial residual = 0, Final residual = 0, No Iterations 0
ExecutionTime = 0.05 s  ClockTime = 0 s

Time = 0.13

DICPCG:  Solving for T, Initial residual = 1, Final residual = 0, No Iterations 1
DICPCG:  Solving for T, Initial residual = 1, Final residual = 0, No Iterations 1
DICPCG:  Solving for T, Initial residual = 0, Final residual = 0, No Iterations 0
ExecutionTime = 0.05 s  ClockTime = 0 s

Time = 0.135

DICPCG:  Solving for T, Initial residual = 1, Final residual = 1.32453e-17, No Iterations 1
DICPCG:  Solving for T, Initial residual = 0, Final residual = 0, No Iterations 0
DICPCG:  Solving for T, Initial residual = 0, Final residual = 0, No Iterations 0
ExecutionTime = 0.05 s  ClockTime = 0 s

Time = 0.14

DICPCG:  Solving for T, Initial residual = 1, Final residual = 0, No Iterations 1
DICPCG:  Solving for T, Initial residual = 0, Final residual = 0, No Iterations 0
DICPCG:  Solving for T, Initial residual = 0, Final residual = 0, No Iterations 0
ExecutionTime = 0.05 s  ClockTime = 0 s

Time = 0.145

DICPCG:  Solving for T, Initial residual = 1, Final residual = 1.32453e-17, No Iterations 1
DICPCG:  Solving for T, Initial residual = 0, Final residual = 0, No Iterations 0
DICPCG:  Solving for T, Initial residual = 0, Final residual = 0, No Iterations 0
ExecutionTime = 0.06 s  ClockTime = 0 s

Time = 0.15

DICPCG:  Solving for T, Initial residual = 1, Final residual = 0, No Iterations 1
DICPCG:  Solving for T, Initial residual = 1, Final residual = 0, No Iterations 1
DICPCG:  Solving for T, Initial residual = 0, Final residual = 0, No Iterations 0
ExecutionTime = 0.06 s  ClockTime = 0 s

Time = 0.155

DICPCG:  Solving for T, Initial residual = 1, Final residual = 0, No Iterations 1
DICPCG:  Solving for T, Initial residual = 1, Final residual = 0, No Iterations 1
DICPCG:  Solving for T, Initial residual = 1, Final residual = 0, No Iterations 1
ExecutionTime = 0.06 s  ClockTime = 0 s

Time = 0.16

DICPCG:  Solving for T, Initial residual = 1, Final residual = 0, No Iterations 1
DICPCG:  Solving for T, Initial residual = 0, Final residual = 0, No Iterations 0
DICPCG:  Solving for T, Initial residual = 0, Final residual = 0, No Iterations 0
ExecutionTime = 0.06 s  ClockTime = 0 s

Time = 0.165

DICPCG:  Solving for T, Initial residual = 1, Final residual = 1.32453e-17, No Iterations 1
DICPCG:  Solving for T, Initial residual = 1, Final residual = 0, No Iterations 1
DICPCG:  Solving for T, Initial residual = 0, Final residual = 0, No Iterations 0
ExecutionTime = 0.06 s  ClockTime = 0 s

Time = 0.17

DICPCG:  Solving for T, Initial residual = 1, Final residual = 0, No Iterations 1
DICPCG:  Solving for T, Initial residual = 0, Final residual = 0, No Iterations 0
DICPCG:  Solving for T, Initial residual = 0, Final residual = 0, No Iterations 0
ExecutionTime = 0.06 s  ClockTime = 0 s

Time = 0.175

DICPCG:  Solving for T, Initial residual = 1, Final residual = 0, No Iterations 1
DICPCG:  Solving for T, Initial residual = 0, Final residual = 0, No Iterations 0
DICPCG:  Solving for T, Initial residual = 0, Final residual = 0, No Iterations 0
ExecutionTime = 0.06 s  ClockTime = 0 s

Time = 0.18

DICPCG:  Solving for T, Initial residual = 1, Final residual = 0, No Iterations 1
DICPCG:  Solving for T, Initial residual = 0, Final residual = 0, No Iterations 0
DICPCG:  Solving for T, Initial residual = 0, Final residual = 0, No Iterations 0
ExecutionTime = 0.06 s  ClockTime = 0 s

Time = 0.185

DICPCG:  Solving for T, Initial residual = 1, Final residual = 0, No Iterations 1
DICPCG:  Solving for T, Initial residual = 0, Final residual = 0, No Iterations 0
DICPCG:  Solving for T, Initial residual = 0, Final residual = 0, No Iterations 0
ExecutionTime = 0.06 s  ClockTime = 0 s

Time = 0.19

DICPCG:  Solving for T, Initial residual = 1, Final residual = 0, No Iterations 1
DICPCG:  Solving for T, Initial residual = 0, Final residual = 0, No Iterations 0
DICPCG:  Solving for T, Initial residual = 0, Final residual = 0, No Iterations 0
ExecutionTime = 0.06 s  ClockTime = 0 s

Time = 0.195

DICPCG:  Solving for T, Initial residual = 1, Final residual = 0, No Iterations 1
DICPCG:  Solving for T, Initial residual = 0, Final residual = 0, No Iterations 0
DICPCG:  Solving for T, Initial residual = 0, Final residual = 0, No Iterations 0
ExecutionTime = 0.07 s  ClockTime = 0 s

Time = 0.2

DICPCG:  Solving for T, Initial residual = 1, Final residual = 0, No Iterations 1
DICPCG:  Solving for T, Initial residual = 1, Final residual = 0, No Iterations 1
DICPCG:  Solving for T, Initial residual = 0, Final residual = 0, No Iterations 0
ExecutionTime = 0.07 s  ClockTime = 0 s

Time = 0.205

DICPCG:  Solving for T, Initial residual = 1, Final residual = 0, No Iterations 1
DICPCG:  Solving for T, Initial residual = 0, Final residual = 0, No Iterations 0
DICPCG:  Solving for T, Initial residual = 0, Final residual = 0, No Iterations 0
ExecutionTime = 0.07 s  ClockTime = 0 s

Time = 0.21

DICPCG:  Solving for T, Initial residual = 1, Final residual = 0, No Iterations 1
DICPCG:  Solving for T, Initial residual = 1, Final residual = 0, No Iterations 1
DICPCG:  Solving for T, Initial residual = 0, Final residual = 0, No Iterations 0
ExecutionTime = 0.07 s  ClockTime = 0 s

Time = 0.215

DICPCG:  Solving for T, Initial residual = 1, Final residual = 0, No Iterations 1
DICPCG:  Solving for T, Initial residual = 0, Final residual = 0, No Iterations 0
DICPCG:  Solving for T, Initial residual = 0, Final residual = 0, No Iterations 0
ExecutionTime = 0.07 s  ClockTime = 0 s

Time = 0.22

DICPCG:  Solving for T, Initial residual = 1, Final residual = 0, No Iterations 1
DICPCG:  Solving for T, Initial residual = 0, Final residual = 0, No Iterations 0
DICPCG:  Solving for T, Initial residual = 0, Final residual = 0, No Iterations 0
ExecutionTime = 0.07 s  ClockTime = 0 s

Time = 0.225

DICPCG:  Solving for T, Initial residual = 1, Final residual = 0, No Iterations 1
DICPCG:  Solving for T, Initial residual = 0, Final residual = 0, No Iterations 0
DICPCG:  Solving for T, Initial residual = 0, Final residual = 0, No Iterations 0
ExecutionTime = 0.08 s  ClockTime = 0 s

Time = 0.23

DICPCG:  Solving for T, Initial residual = 1, Final residual = 0, No Iterations 1
DICPCG:  Solving for T, Initial residual = 0, Final residual = 0, No Iterations 0
DICPCG:  Solving for T, Initial residual = 0, Final residual = 0, No Iterations 0
ExecutionTime = 0.08 s  ClockTime = 0 s

Time = 0.235

DICPCG:  Solving for T, Initial residual = 1, Final residual = 0, No Iterations 1
DICPCG:  Solving for T, Initial residual = 1, Final residual = 0, No Iterations 1
DICPCG:  Solving for T, Initial residual = 0, Final residual = 0, No Iterations 0
ExecutionTime = 0.08 s  ClockTime = 0 s

Time = 0.24

DICPCG:  Solving for T, Initial residual = 1, Final residual = 0, No Iterations 1
DICPCG:  Solving for T, Initial residual = 0, Final residual = 0, No Iterations 0
DICPCG:  Solving for T, Initial residual = 0, Final residual = 0, No Iterations 0
ExecutionTime = 0.08 s  ClockTime = 0 s

Time = 0.245

DICPCG:  Solving for T, Initial residual = 1, Final residual = 0, No Iterations 1
DICPCG:  Solving for T, Initial residual = 1, Final residual = 0, No Iterations 1
DICPCG:  Solving for T, Initial residual = 0, Final residual = 0, No Iterations 0
ExecutionTime = 0.08 s  ClockTime = 0 s

Time = 0.25

DICPCG:  Solving for T, Initial residual = 1, Final residual = 1.32453e-17, No Iterations 1
DICPCG:  Solving for T, Initial residual = 0, Final residual = 0, No Iterations 0
DICPCG:  Solving for T, Initial residual = 0, Final residual = 0, No Iterations 0
ExecutionTime = 0.08 s  ClockTime = 0 s

Time = 0.255

DICPCG:  Solving for T, Initial residual = 1, Final residual = 0, No Iterations 1
DICPCG:  Solving for T, Initial residual = 0, Final residual = 0, No Iterations 0
DICPCG:  Solving for T, Initial residual = 0, Final residual = 0, No Iterations 0
ExecutionTime = 0.08 s  ClockTime = 0 s

Time = 0.26

DICPCG:  Solving for T, Initial residual = 1, Final residual = 0, No Iterations 1
DICPCG:  Solving for T, Initial residual = 0, Final residual = 0, No Iterations 0
DICPCG:  Solving for T, Initial residual = 0, Final residual = 0, No Iterations 0
ExecutionTime = 0.08 s  ClockTime = 0 s

Time = 0.265

DICPCG:  Solving for T, Initial residual = 1, Final residual = 0, No Iterations 1
DICPCG:  Solving for T, Initial residual = 0, Final residual = 0, No Iterations 0
DICPCG:  Solving for T, Initial residual = 0, Final residual = 0, No Iterations 0
ExecutionTime = 0.08 s  ClockTime = 0 s

Time = 0.27

DICPCG:  Solving for T, Initial residual = 1, Final residual = 1.32453e-17, No Iterations 1
DICPCG:  Solving for T, Initial residual = 0, Final residual = 0, No Iterations 0
DICPCG:  Solving for T, Initial residual = 0, Final residual = 0, No Iterations 0
ExecutionTime = 0.08 s  ClockTime = 0 s

Time = 0.275

DICPCG:  Solving for T, Initial residual = 1, Final residual = 0, No Iterations 1
DICPCG:  Solving for T, Initial residual = 0, Final residual = 0, No Iterations 0
DICPCG:  Solving for T, Initial residual = 0, Final residual = 0, No Iterations 0
ExecutionTime = 0.09 s  ClockTime = 0 s

Time = 0.28

DICPCG:  Solving for T, Initial residual = 1, Final residual = 0, No Iterations 1
DICPCG:  Solving for T, Initial residual = 0, Final residual = 0, No Iterations 0
DICPCG:  Solving for T, Initial residual = 0, Final residual = 0, No Iterations 0
ExecutionTime = 0.09 s  ClockTime = 0 s

Time = 0.285

DICPCG:  Solving for T, Initial residual = 1, Final residual = 0, No Iterations 1
DICPCG:  Solving for T, Initial residual = 0, Final residual = 0, No Iterations 0
DICPCG:  Solving for T, Initial residual = 0, Final residual = 0, No Iterations 0
ExecutionTime = 0.09 s  ClockTime = 0 s

Time = 0.29

DICPCG:  Solving for T, Initial residual = 1, Final residual = 0, No Iterations 1
DICPCG:  Solving for T, Initial residual = 1, Final residual = 0, No Iterations 1
DICPCG:  Solving for T, Initial residual = 0, Final residual = 0, No Iterations 0
ExecutionTime = 0.09 s  ClockTime = 0 s

Time = 0.295

DICPCG:  Solving for T, Initial residual = 1, Final residual = 0, No Iterations 1
DICPCG:  Solving for T, Initial residual = 0, Final residual = 0, No Iterations 0
DICPCG:  Solving for T, Initial residual = 0, Final residual = 0, No Iterations 0
ExecutionTime = 0.09 s  ClockTime = 0 s

Time = 0.3

DICPCG:  Solving for T, Initial residual = 1, Final residual = 0, No Iterations 1
DICPCG:  Solving for T, Initial residual = 0, Final residual = 0, No Iterations 0
DICPCG:  Solving for T, Initial residual = 0, Final residual = 0, No Iterations 0
ExecutionTime = 0.1 s  ClockTime = 0 s

Time = 0.305

DICPCG:  Solving for T, Initial residual = 1, Final residual = 0, No Iterations 1
DICPCG:  Solving for T, Initial residual = 1, Final residual = 0, No Iterations 1
DICPCG:  Solving for T, Initial residual = 1, Final residual = 0, No Iterations 1
ExecutionTime = 0.1 s  ClockTime = 0 s

Time = 0.31

DICPCG:  Solving for T, Initial residual = 1, Final residual = 0, No Iterations 1
DICPCG:  Solving for T, Initial residual = 1, Final residual = 0, No Iterations 1
DICPCG:  Solving for T, Initial residual = 1, Final residual = 0, No Iterations 1
ExecutionTime = 0.1 s  ClockTime = 0 s

Time = 0.315

DICPCG:  Solving for T, Initial residual = 1, Final residual = 0, No Iterations 1
DICPCG:  Solving for T, Initial residual = 0, Final residual = 0, No Iterations 0
DICPCG:  Solving for T, Initial residual = 0, Final residual = 0, No Iterations 0
ExecutionTime = 0.1 s  ClockTime = 0 s

Time = 0.32

DICPCG:  Solving for T, Initial residual = 1, Final residual = 1.32453e-17, No Iterations 1
DICPCG:  Solving for T, Initial residual = 0, Final residual = 0, No Iterations 0
DICPCG:  Solving for T, Initial residual = 0, Final residual = 0, No Iterations 0
ExecutionTime = 0.1 s  ClockTime = 0 s

Time = 0.325

DICPCG:  Solving for T, Initial residual = 1, Final residual = 0, No Iterations 1
DICPCG:  Solving for T, Initial residual = 0, Final residual = 0, No Iterations 0
DICPCG:  Solving for T, Initial residual = 0, Final residual = 0, No Iterations 0
ExecutionTime = 0.1 s  ClockTime = 0 s

Time = 0.33

DICPCG:  Solving for T, Initial residual = 1, Final residual = 0, No Iterations 1
DICPCG:  Solving for T, Initial residual = 1, Final residual = 0, No Iterations 1
DICPCG:  Solving for T, Initial residual = 0, Final residual = 0, No Iterations 0
ExecutionTime = 0.1 s  ClockTime = 0 s

Time = 0.335

DICPCG:  Solving for T, Initial residual = 1, Final residual = 0, No Iterations 1
DICPCG:  Solving for T, Initial residual = 1, Final residual = 0, No Iterations 1
DICPCG:  Solving for T, Initial residual = 0, Final residual = 0, No Iterations 0
ExecutionTime = 0.1 s  ClockTime = 0 s

Time = 0.34

DICPCG:  Solving for T, Initial residual = 1, Final residual = 0, No Iterations 1
DICPCG:  Solving for T, Initial residual = 0, Final residual = 0, No Iterations 0
DICPCG:  Solving for T, Initial residual = 0, Final residual = 0, No Iterations 0
ExecutionTime = 0.1 s  ClockTime = 0 s

Time = 0.345

DICPCG:  Solving for T, Initial residual = 1, Final residual = 0, No Iterations 1
DICPCG:  Solving for T, Initial residual = 0, Final residual = 0, No Iterations 0
DICPCG:  Solving for T, Initial residual = 0, Final residual = 0, No Iterations 0
ExecutionTime = 0.1 s  ClockTime = 0 s

Time = 0.35

DICPCG:  Solving for T, Initial residual = 1, Final residual = 0, No Iterations 1
DICPCG:  Solving for T, Initial residual = 0, Final residual = 0, No Iterations 0
DICPCG:  Solving for T, Initial residual = 0, Final residual = 0, No Iterations 0
ExecutionTime = 0.11 s  ClockTime = 0 s

Time = 0.355

DICPCG:  Solving for T, Initial residual = 1, Final residual = 0, No Iterations 1
DICPCG:  Solving for T, Initial residual = 1, Final residual = 0, No Iterations 1
DICPCG:  Solving for T, Initial residual = 0, Final residual = 0, No Iterations 0
ExecutionTime = 0.11 s  ClockTime = 0 s

Time = 0.36

DICPCG:  Solving for T, Initial residual = 1, Final residual = 0, No Iterations 1
DICPCG:  Solving for T, Initial residual = 0, Final residual = 0, No Iterations 0
DICPCG:  Solving for T, Initial residual = 0, Final residual = 0, No Iterations 0
ExecutionTime = 0.11 s  ClockTime = 0 s

Time = 0.365

DICPCG:  Solving for T, Initial residual = 1, Final residual = 0, No Iterations 1
DICPCG:  Solving for T, Initial residual = 0, Final residual = 0, No Iterations 0
DICPCG:  Solving for T, Initial residual = 0, Final residual = 0, No Iterations 0
ExecutionTime = 0.11 s  ClockTime = 0 s

Time = 0.37

DICPCG:  Solving for T, Initial residual = 1, Final residual = 0, No Iterations 1
DICPCG:  Solving for T, Initial residual = 0, Final residual = 0, No Iterations 0
DICPCG:  Solving for T, Initial residual = 0, Final residual = 0, No Iterations 0
ExecutionTime = 0.11 s  ClockTime = 0 s

Time = 0.375

DICPCG:  Solving for T, Initial residual = 1, Final residual = 0, No Iterations 1
DICPCG:  Solving for T, Initial residual = 0, Final residual = 0, No Iterations 0
DICPCG:  Solving for T, Initial residual = 0, Final residual = 0, No Iterations 0
ExecutionTime = 0.11 s  ClockTime = 0 s

Time = 0.38

DICPCG:  Solving for T, Initial residual = 1, Final residual = 0, No Iterations 1
DICPCG:  Solving for T, Initial residual = 0, Final residual = 0, No Iterations 0
DICPCG:  Solving for T, Initial residual = 0, Final residual = 0, No Iterations 0
ExecutionTime = 0.11 s  ClockTime = 0 s

Time = 0.385

DICPCG:  Solving for T, Initial residual = 1, Final residual = 0, No Iterations 1
DICPCG:  Solving for T, Initial residual = 1, Final residual = 0, No Iterations 1
DICPCG:  Solving for T, Initial residual = 0, Final residual = 0, No Iterations 0
ExecutionTime = 0.12 s  ClockTime = 0 s

Time = 0.39

DICPCG:  Solving for T, Initial residual = 1, Final residual = 1.32453e-17, No Iterations 1
DICPCG:  Solving for T, Initial residual = 0, Final residual = 0, No Iterations 0
DICPCG:  Solving for T, Initial residual = 0, Final residual = 0, No Iterations 0
ExecutionTime = 0.12 s  ClockTime = 0 s

Time = 0.395

DICPCG:  Solving for T, Initial residual = 1, Final residual = 1.9227e-16, No Iterations 1
DICPCG:  Solving for T, Initial residual = 1, Final residual = 0, No Iterations 1
DICPCG:  Solving for T, Initial residual = 0, Final residual = 0, No Iterations 0
ExecutionTime = 0.12 s  ClockTime = 0 s

Time = 0.4

DICPCG:  Solving for T, Initial residual = 1, Final residual = 1.32453e-17, No Iterations 1
DICPCG:  Solving for T, Initial residual = 0, Final residual = 0, No Iterations 0
DICPCG:  Solving for T, Initial residual = 0, Final residual = 0, No Iterations 0
ExecutionTime = 0.12 s  ClockTime = 0 s

Time = 0.405

DICPCG:  Solving for T, Initial residual = 1, Final residual = 1.32453e-17, No Iterations 1
DICPCG:  Solving for T, Initial residual = 0, Final residual = 0, No Iterations 0
DICPCG:  Solving for T, Initial residual = 0, Final residual = 0, No Iterations 0
ExecutionTime = 0.12 s  ClockTime = 0 s

Time = 0.41

DICPCG:  Solving for T, Initial residual = 1, Final residual = 0, No Iterations 1
DICPCG:  Solving for T, Initial residual = 0, Final residual = 0, No Iterations 0
DICPCG:  Solving for T, Initial residual = 0, Final residual = 0, No Iterations 0
ExecutionTime = 0.12 s  ClockTime = 0 s

Time = 0.415

DICPCG:  Solving for T, Initial residual = 1, Final residual = 1.32453e-17, No Iterations 1
DICPCG:  Solving for T, Initial residual = 0, Final residual = 0, No Iterations 0
DICPCG:  Solving for T, Initial residual = 0, Final residual = 0, No Iterations 0
ExecutionTime = 0.12 s  ClockTime = 0 s

Time = 0.42

DICPCG:  Solving for T, Initial residual = 1, Final residual = 0, No Iterations 1
DICPCG:  Solving for T, Initial residual = 0, Final residual = 0, No Iterations 0
DICPCG:  Solving for T, Initial residual = 0, Final residual = 0, No Iterations 0
ExecutionTime = 0.12 s  ClockTime = 0 s

Time = 0.425

DICPCG:  Solving for T, Initial residual = 1, Final residual = 1.32453e-17, No Iterations 1
DICPCG:  Solving for T, Initial residual = 0, Final residual = 0, No Iterations 0
DICPCG:  Solving for T, Initial residual = 0, Final residual = 0, No Iterations 0
ExecutionTime = 0.13 s  ClockTime = 0 s

Time = 0.43

DICPCG:  Solving for T, Initial residual = 1, Final residual = 1.32453e-17, No Iterations 1
DICPCG:  Solving for T, Initial residual = 1, Final residual = 0, No Iterations 1
DICPCG:  Solving for T, Initial residual = 0, Final residual = 0, No Iterations 0
ExecutionTime = 0.13 s  ClockTime = 0 s

Time = 0.435

DICPCG:  Solving for T, Initial residual = 1, Final residual = 1.9227e-16, No Iterations 1
DICPCG:  Solving for T, Initial residual = 0, Final residual = 0, No Iterations 0
DICPCG:  Solving for T, Initial residual = 0, Final residual = 0, No Iterations 0
ExecutionTime = 0.13 s  ClockTime = 0 s

Time = 0.44

DICPCG:  Solving for T, Initial residual = 1, Final residual = 1.32453e-17, No Iterations 1
DICPCG:  Solving for T, Initial residual = 0, Final residual = 0, No Iterations 0
DICPCG:  Solving for T, Initial residual = 0, Final residual = 0, No Iterations 0
ExecutionTime = 0.13 s  ClockTime = 0 s

Time = 0.445

DICPCG:  Solving for T, Initial residual = 1, Final residual = 0, No Iterations 1
DICPCG:  Solving for T, Initial residual = 1, Final residual = 0, No Iterations 1
DICPCG:  Solving for T, Initial residual = 0, Final residual = 0, No Iterations 0
ExecutionTime = 0.13 s  ClockTime = 0 s

Time = 0.45

DICPCG:  Solving for T, Initial residual = 1, Final residual = 1.32453e-17, No Iterations 1
DICPCG:  Solving for T, Initial residual = 1, Final residual = 0, No Iterations 1
DICPCG:  Solving for T, Initial residual = 0, Final residual = 0, No Iterations 0
ExecutionTime = 0.13 s  ClockTime = 0 s

Time = 0.455

DICPCG:  Solving for T, Initial residual = 1, Final residual = 0, No Iterations 1
DICPCG:  Solving for T, Initial residual = 0, Final residual = 0, No Iterations 0
DICPCG:  Solving for T, Initial residual = 0, Final residual = 0, No Iterations 0
ExecutionTime = 0.13 s  ClockTime = 0 s

Time = 0.46

DICPCG:  Solving for T, Initial residual = 1, Final residual = 1.32453e-17, No Iterations 1
DICPCG:  Solving for T, Initial residual = 0, Final residual = 0, No Iterations 0
DICPCG:  Solving for T, Initial residual = 0, Final residual = 0, No Iterations 0
ExecutionTime = 0.13 s  ClockTime = 0 s

Time = 0.465

DICPCG:  Solving for T, Initial residual = 1, Final residual = 0, No Iterations 1
DICPCG:  Solving for T, Initial residual = 1, Final residual = 0, No Iterations 1
DICPCG:  Solving for T, Initial residual = 0, Final residual = 0, No Iterations 0
ExecutionTime = 0.14 s  ClockTime = 0 s

Time = 0.47

DICPCG:  Solving for T, Initial residual = 1, Final residual = 0, No Iterations 1
DICPCG:  Solving for T, Initial residual = 0, Final residual = 0, No Iterations 0
DICPCG:  Solving for T, Initial residual = 0, Final residual = 0, No Iterations 0
ExecutionTime = 0.14 s  ClockTime = 0 s

Time = 0.475

DICPCG:  Solving for T, Initial residual = 1, Final residual = 0, No Iterations 1
DICPCG:  Solving for T, Initial residual = 0, Final residual = 0, No Iterations 0
DICPCG:  Solving for T, Initial residual = 0, Final residual = 0, No Iterations 0
ExecutionTime = 0.14 s  ClockTime = 0 s

Time = 0.48

DICPCG:  Solving for T, Initial residual = 1, Final residual = 0, No Iterations 1
DICPCG:  Solving for T, Initial residual = 0, Final residual = 0, No Iterations 0
DICPCG:  Solving for T, Initial residual = 0, Final residual = 0, No Iterations 0
ExecutionTime = 0.14 s  ClockTime = 0 s

Time = 0.485

DICPCG:  Solving for T, Initial residual = 1, Final residual = 0, No Iterations 1
DICPCG:  Solving for T, Initial residual = 0, Final residual = 0, No Iterations 0
DICPCG:  Solving for T, Initial residual = 0, Final residual = 0, No Iterations 0
ExecutionTime = 0.14 s  ClockTime = 0 s

Time = 0.49

DICPCG:  Solving for T, Initial residual = 1, Final residual = 0, No Iterations 1
DICPCG:  Solving for T, Initial residual = 0, Final residual = 0, No Iterations 0
DICPCG:  Solving for T, Initial residual = 0, Final residual = 0, No Iterations 0
ExecutionTime = 0.14 s  ClockTime = 0 s

Time = 0.495

DICPCG:  Solving for T, Initial residual = 1, Final residual = 0, No Iterations 1
DICPCG:  Solving for T, Initial residual = 0, Final residual = 0, No Iterations 0
DICPCG:  Solving for T, Initial residual = 0, Final residual = 0, No Iterations 0
ExecutionTime = 0.14 s  ClockTime = 0 s

Time = 0.5

DICPCG:  Solving for T, Initial residual = 1, Final residual = 0, No Iterations 1
DICPCG:  Solving for T, Initial residual = 0, Final residual = 0, No Iterations 0
DICPCG:  Solving for T, Initial residual = 0, Final residual = 0, No Iterations 0
ExecutionTime = 0.14 s  ClockTime = 0 s

Time = 0.505

DICPCG:  Solving for T, Initial residual = 1, Final residual = 0, No Iterations 1
DICPCG:  Solving for T, Initial residual = 0, Final residual = 0, No Iterations 0
DICPCG:  Solving for T, Initial residual = 0, Final residual = 0, No Iterations 0
ExecutionTime = 0.15 s  ClockTime = 0 s

Time = 0.51

DICPCG:  Solving for T, Initial residual = 1, Final residual = 0, No Iterations 1
DICPCG:  Solving for T, Initial residual = 0, Final residual = 0, No Iterations 0
DICPCG:  Solving for T, Initial residual = 0, Final residual = 0, No Iterations 0
ExecutionTime = 0.15 s  ClockTime = 0 s

Time = 0.515

DICPCG:  Solving for T, Initial residual = 1, Final residual = 0, No Iterations 1
DICPCG:  Solving for T, Initial residual = 0, Final residual = 0, No Iterations 0
DICPCG:  Solving for T, Initial residual = 0, Final residual = 0, No Iterations 0
ExecutionTime = 0.15 s  ClockTime = 0 s

Time = 0.52

DICPCG:  Solving for T, Initial residual = 1, Final residual = 0, No Iterations 1
DICPCG:  Solving for T, Initial residual = 0, Final residual = 0, No Iterations 0
DICPCG:  Solving for T, Initial residual = 0, Final residual = 0, No Iterations 0
ExecutionTime = 0.15 s  ClockTime = 0 s

Time = 0.525

DICPCG:  Solving for T, Initial residual = 1, Final residual = 0, No Iterations 1
DICPCG:  Solving for T, Initial residual = 0, Final residual = 0, No Iterations 0
DICPCG:  Solving for T, Initial residual = 0, Final residual = 0, No Iterations 0
ExecutionTime = 0.15 s  ClockTime = 0 s

Time = 0.53

DICPCG:  Solving for T, Initial residual = 1, Final residual = 0, No Iterations 1
DICPCG:  Solving for T, Initial residual = 0, Final residual = 0, No Iterations 0
DICPCG:  Solving for T, Initial residual = 0, Final residual = 0, No Iterations 0
ExecutionTime = 0.15 s  ClockTime = 0 s

Time = 0.535

DICPCG:  Solving for T, Initial residual = 1, Final residual = 0, No Iterations 1
DICPCG:  Solving for T, Initial residual = 1, Final residual = 0, No Iterations 1
DICPCG:  Solving for T, Initial residual = 0, Final residual = 0, No Iterations 0
ExecutionTime = 0.16 s  ClockTime = 0 s

Time = 0.54

DICPCG:  Solving for T, Initial residual = 1, Final residual = 0, No Iterations 1
DICPCG:  Solving for T, Initial residual = 1, Final residual = 0, No Iterations 1
DICPCG:  Solving for T, Initial residual = 0, Final residual = 0, No Iterations 0
ExecutionTime = 0.16 s  ClockTime = 0 s

Time = 0.545

DICPCG:  Solving for T, Initial residual = 1, Final residual = 0, No Iterations 1
DICPCG:  Solving for T, Initial residual = 0, Final residual = 0, No Iterations 0
DICPCG:  Solving for T, Initial residual = 0, Final residual = 0, No Iterations 0
ExecutionTime = 0.16 s  ClockTime = 0 s

Time = 0.55

DICPCG:  Solving for T, Initial residual = 1, Final residual = 0, No Iterations 1
DICPCG:  Solving for T, Initial residual = 0, Final residual = 0, No Iterations 0
DICPCG:  Solving for T, Initial residual = 0, Final residual = 0, No Iterations 0
ExecutionTime = 0.16 s  ClockTime = 0 s

Time = 0.555

DICPCG:  Solving for T, Initial residual = 1, Final residual = 0, No Iterations 1
DICPCG:  Solving for T, Initial residual = 0, Final residual = 0, No Iterations 0
DICPCG:  Solving for T, Initial residual = 0, Final residual = 0, No Iterations 0
ExecutionTime = 0.16 s  ClockTime = 0 s

Time = 0.56

DICPCG:  Solving for T, Initial residual = 1, Final residual = 0, No Iterations 1
DICPCG:  Solving for T, Initial residual = 1, Final residual = 0, No Iterations 1
DICPCG:  Solving for T, Initial residual = 0, Final residual = 0, No Iterations 0
ExecutionTime = 0.16 s  ClockTime = 0 s

Time = 0.565

DICPCG:  Solving for T, Initial residual = 1, Final residual = 0, No Iterations 1
DICPCG:  Solving for T, Initial residual = 1, Final residual = 0, No Iterations 1
DICPCG:  Solving for T, Initial residual = 0, Final residual = 0, No Iterations 0
ExecutionTime = 0.16 s  ClockTime = 0 s

Time = 0.57

DICPCG:  Solving for T, Initial residual = 1, Final residual = 0, No Iterations 1
DICPCG:  Solving for T, Initial residual = 0, Final residual = 0, No Iterations 0
DICPCG:  Solving for T, Initial residual = 0, Final residual = 0, No Iterations 0
ExecutionTime = 0.16 s  ClockTime = 0 s

Time = 0.575

DICPCG:  Solving for T, Initial residual = 1, Final residual = 0, No Iterations 1
DICPCG:  Solving for T, Initial residual = 0, Final residual = 0, No Iterations 0
DICPCG:  Solving for T, Initial residual = 0, Final residual = 0, No Iterations 0
ExecutionTime = 0.16 s  ClockTime = 0 s

Time = 0.58

DICPCG:  Solving for T, Initial residual = 1, Final residual = 0, No Iterations 1
DICPCG:  Solving for T, Initial residual = 1, Final residual = 0, No Iterations 1
DICPCG:  Solving for T, Initial residual = 0, Final residual = 0, No Iterations 0
ExecutionTime = 0.16 s  ClockTime = 0 s

Time = 0.585

DICPCG:  Solving for T, Initial residual = 1, Final residual = 0, No Iterations 1
DICPCG:  Solving for T, Initial residual = 1, Final residual = 0, No Iterations 1
DICPCG:  Solving for T, Initial residual = 0, Final residual = 0, No Iterations 0
ExecutionTime = 0.16 s  ClockTime = 0 s

Time = 0.59

DICPCG:  Solving for T, Initial residual = 1, Final residual = 0, No Iterations 1
DICPCG:  Solving for T, Initial residual = 0, Final residual = 0, No Iterations 0
DICPCG:  Solving for T, Initial residual = 0, Final residual = 0, No Iterations 0
ExecutionTime = 0.16 s  ClockTime = 0 s

Time = 0.595

DICPCG:  Solving for T, Initial residual = 1, Final residual = 0, No Iterations 1
DICPCG:  Solving for T, Initial residual = 0, Final residual = 0, No Iterations 0
DICPCG:  Solving for T, Initial residual = 0, Final residual = 0, No Iterations 0
ExecutionTime = 0.16 s  ClockTime = 0 s

Time = 0.6

DICPCG:  Solving for T, Initial residual = 1, Final residual = 0, No Iterations 1
DICPCG:  Solving for T, Initial residual = 0, Final residual = 0, No Iterations 0
DICPCG:  Solving for T, Initial residual = 0, Final residual = 0, No Iterations 0
ExecutionTime = 0.17 s  ClockTime = 0 s

Time = 0.605

DICPCG:  Solving for T, Initial residual = 1, Final residual = 0, No Iterations 1
DICPCG:  Solving for T, Initial residual = 1, Final residual = 0, No Iterations 1
DICPCG:  Solving for T, Initial residual = 1, Final residual = 0, No Iterations 1
ExecutionTime = 0.17 s  ClockTime = 0 s

Time = 0.61

DICPCG:  Solving for T, Initial residual = 1, Final residual = 1.32453e-17, No Iterations 1
DICPCG:  Solving for T, Initial residual = 0, Final residual = 0, No Iterations 0
DICPCG:  Solving for T, Initial residual = 0, Final residual = 0, No Iterations 0
ExecutionTime = 0.17 s  ClockTime = 0 s

Time = 0.615

DICPCG:  Solving for T, Initial residual = 1, Final residual = 1.32453e-17, No Iterations 1
DICPCG:  Solving for T, Initial residual = 0, Final residual = 0, No Iterations 0
DICPCG:  Solving for T, Initial residual = 0, Final residual = 0, No Iterations 0
ExecutionTime = 0.17 s  ClockTime = 0 s

Time = 0.62

DICPCG:  Solving for T, Initial residual = 1, Final residual = 0, No Iterations 1
DICPCG:  Solving for T, Initial residual = 1, Final residual = 0, No Iterations 1
DICPCG:  Solving for T, Initial residual = 1, Final residual = 0, No Iterations 1
ExecutionTime = 0.17 s  ClockTime = 0 s

Time = 0.625

DICPCG:  Solving for T, Initial residual = 1, Final residual = 1.32453e-17, No Iterations 1
DICPCG:  Solving for T, Initial residual = 0, Final residual = 0, No Iterations 0
DICPCG:  Solving for T, Initial residual = 0, Final residual = 0, No Iterations 0
ExecutionTime = 0.17 s  ClockTime = 0 s

Time = 0.63

DICPCG:  Solving for T, Initial residual = 1, Final residual = 1.32453e-17, No Iterations 1
DICPCG:  Solving for T, Initial residual = 1, Final residual = 0, No Iterations 1
DICPCG:  Solving for T, Initial residual = 1, Final residual = 0, No Iterations 1
ExecutionTime = 0.18 s  ClockTime = 0 s

Time = 0.635

DICPCG:  Solving for T, Initial residual = 1, Final residual = 0, No Iterations 1
DICPCG:  Solving for T, Initial residual = 0, Final residual = 0, No Iterations 0
DICPCG:  Solving for T, Initial residual = 0, Final residual = 0, No Iterations 0
ExecutionTime = 0.18 s  ClockTime = 0 s

Time = 0.64

DICPCG:  Solving for T, Initial residual = 1, Final residual = 0, No Iterations 1
DICPCG:  Solving for T, Initial residual = 0, Final residual = 0, No Iterations 0
DICPCG:  Solving for T, Initial residual = 0, Final residual = 0, No Iterations 0
ExecutionTime = 0.18 s  ClockTime = 0 s

Time = 0.645

DICPCG:  Solving for T, Initial residual = 1, Final residual = 1.32453e-17, No Iterations 1
DICPCG:  Solving for T, Initial residual = 0, Final residual = 0, No Iterations 0
DICPCG:  Solving for T, Initial residual = 0, Final residual = 0, No Iterations 0
ExecutionTime = 0.18 s  ClockTime = 0 s

Time = 0.65

DICPCG:  Solving for T, Initial residual = 1, Final residual = 1.32453e-17, No Iterations 1
DICPCG:  Solving for T, Initial residual = 0, Final residual = 0, No Iterations 0
DICPCG:  Solving for T, Initial residual = 0, Final residual = 0, No Iterations 0
ExecutionTime = 0.18 s  ClockTime = 0 s

Time = 0.655

DICPCG:  Solving for T, Initial residual = 1, Final residual = 1.32453e-17, No Iterations 1
DICPCG:  Solving for T, Initial residual = 0, Final residual = 0, No Iterations 0
DICPCG:  Solving for T, Initial residual = 0, Final residual = 0, No Iterations 0
ExecutionTime = 0.18 s  ClockTime = 0 s

Time = 0.66

DICPCG:  Solving for T, Initial residual = 1, Final residual = 1.32453e-17, No Iterations 1
DICPCG:  Solving for T, Initial residual = 0, Final residual = 0, No Iterations 0
DICPCG:  Solving for T, Initial residual = 0, Final residual = 0, No Iterations 0
ExecutionTime = 0.18 s  ClockTime = 0 s

Time = 0.665

DICPCG:  Solving for T, Initial residual = 1, Final residual = 0, No Iterations 1
DICPCG:  Solving for T, Initial residual = 0, Final residual = 0, No Iterations 0
DICPCG:  Solving for T, Initial residual = 0, Final residual = 0, No Iterations 0
ExecutionTime = 0.18 s  ClockTime = 0 s

Time = 0.67

DICPCG:  Solving for T, Initial residual = 1, Final residual = 0, No Iterations 1
DICPCG:  Solving for T, Initial residual = 0, Final residual = 0, No Iterations 0
DICPCG:  Solving for T, Initial residual = 0, Final residual = 0, No Iterations 0
ExecutionTime = 0.18 s  ClockTime = 0 s

Time = 0.675

DICPCG:  Solving for T, Initial residual = 1, Final residual = 0, No Iterations 1
DICPCG:  Solving for T, Initial residual = 0, Final residual = 0, No Iterations 0
DICPCG:  Solving for T, Initial residual = 0, Final residual = 0, No Iterations 0
ExecutionTime = 0.18 s  ClockTime = 0 s

Time = 0.68

DICPCG:  Solving for T, Initial residual = 1, Final residual = 0, No Iterations 1
DICPCG:  Solving for T, Initial residual = 0, Final residual = 0, No Iterations 0
DICPCG:  Solving for T, Initial residual = 0, Final residual = 0, No Iterations 0
ExecutionTime = 0.18 s  ClockTime = 0 s

Time = 0.685

DICPCG:  Solving for T, Initial residual = 1, Final residual = 0, No Iterations 1
DICPCG:  Solving for T, Initial residual = 0, Final residual = 0, No Iterations 0
DICPCG:  Solving for T, Initial residual = 0, Final residual = 0, No Iterations 0
ExecutionTime = 0.19 s  ClockTime = 0 s

Time = 0.69

DICPCG:  Solving for T, Initial residual = 1, Final residual = 0, No Iterations 1
DICPCG:  Solving for T, Initial residual = 0, Final residual = 0, No Iterations 0
DICPCG:  Solving for T, Initial residual = 0, Final residual = 0, No Iterations 0
ExecutionTime = 0.19 s  ClockTime = 0 s

Time = 0.695

DICPCG:  Solving for T, Initial residual = 1, Final residual = 0, No Iterations 1
DICPCG:  Solving for T, Initial residual = 0, Final residual = 0, No Iterations 0
DICPCG:  Solving for T, Initial residual = 0, Final residual = 0, No Iterations 0
ExecutionTime = 0.19 s  ClockTime = 0 s

Time = 0.7

DICPCG:  Solving for T, Initial residual = 1, Final residual = 0, No Iterations 1
DICPCG:  Solving for T, Initial residual = 0, Final residual = 0, No Iterations 0
DICPCG:  Solving for T, Initial residual = 0, Final residual = 0, No Iterations 0
ExecutionTime = 0.19 s  ClockTime = 0 s

Time = 0.705

DICPCG:  Solving for T, Initial residual = 1, Final residual = 0, No Iterations 1
DICPCG:  Solving for T, Initial residual = 0, Final residual = 0, No Iterations 0
DICPCG:  Solving for T, Initial residual = 0, Final residual = 0, No Iterations 0
ExecutionTime = 0.19 s  ClockTime = 0 s

Time = 0.71

DICPCG:  Solving for T, Initial residual = 1, Final residual = 0, No Iterations 1
DICPCG:  Solving for T, Initial residual = 0, Final residual = 0, No Iterations 0
DICPCG:  Solving for T, Initial residual = 0, Final residual = 0, No Iterations 0
ExecutionTime = 0.2 s  ClockTime = 0 s

Time = 0.715

DICPCG:  Solving for T, Initial residual = 1, Final residual = 0, No Iterations 1
DICPCG:  Solving for T, Initial residual = 0, Final residual = 0, No Iterations 0
DICPCG:  Solving for T, Initial residual = 0, Final residual = 0, No Iterations 0
ExecutionTime = 0.2 s  ClockTime = 0 s

Time = 0.72

DICPCG:  Solving for T, Initial residual = 1, Final residual = 0, No Iterations 1
DICPCG:  Solving for T, Initial residual = 1, Final residual = 0, No Iterations 1
DICPCG:  Solving for T, Initial residual = 0, Final residual = 0, No Iterations 0
ExecutionTime = 0.2 s  ClockTime = 0 s

Time = 0.725

DICPCG:  Solving for T, Initial residual = 1, Final residual = 0, No Iterations 1
DICPCG:  Solving for T, Initial residual = 1, Final residual = 0, No Iterations 1
DICPCG:  Solving for T, Initial residual = 0, Final residual = 0, No Iterations 0
ExecutionTime = 0.2 s  ClockTime = 0 s

Time = 0.73

DICPCG:  Solving for T, Initial residual = 1, Final residual = 0, No Iterations 1
DICPCG:  Solving for T, Initial residual = 0, Final residual = 0, No Iterations 0
DICPCG:  Solving for T, Initial residual = 0, Final residual = 0, No Iterations 0
ExecutionTime = 0.2 s  ClockTime = 0 s

Time = 0.735

DICPCG:  Solving for T, Initial residual = 1, Final residual = 0, No Iterations 1
DICPCG:  Solving for T, Initial residual = 1, Final residual = 0, No Iterations 1
DICPCG:  Solving for T, Initial residual = 0, Final residual = 0, No Iterations 0
ExecutionTime = 0.2 s  ClockTime = 0 s

Time = 0.74

DICPCG:  Solving for T, Initial residual = 1, Final residual = 0, No Iterations 1
DICPCG:  Solving for T, Initial residual = 0, Final residual = 0, No Iterations 0
DICPCG:  Solving for T, Initial residual = 0, Final residual = 0, No Iterations 0
ExecutionTime = 0.2 s  ClockTime = 0 s

Time = 0.745

DICPCG:  Solving for T, Initial residual = 1, Final residual = 0, No Iterations 1
DICPCG:  Solving for T, Initial residual = 0, Final residual = 0, No Iterations 0
DICPCG:  Solving for T, Initial residual = 0, Final residual = 0, No Iterations 0
ExecutionTime = 0.2 s  ClockTime = 0 s

Time = 0.75

DICPCG:  Solving for T, Initial residual = 1, Final residual = 0, No Iterations 1
DICPCG:  Solving for T, Initial residual = 1, Final residual = 0, No Iterations 1
DICPCG:  Solving for T, Initial residual = 0, Final residual = 0, No Iterations 0
ExecutionTime = 0.2 s  ClockTime = 0 s

Time = 0.755

DICPCG:  Solving for T, Initial residual = 1, Final residual = 0, No Iterations 1
DICPCG:  Solving for T, Initial residual = 0, Final residual = 0, No Iterations 0
DICPCG:  Solving for T, Initial residual = 0, Final residual = 0, No Iterations 0
ExecutionTime = 0.2 s  ClockTime = 0 s

Time = 0.76

DICPCG:  Solving for T, Initial residual = 1, Final residual = 0, No Iterations 1
DICPCG:  Solving for T, Initial residual = 1, Final residual = 0, No Iterations 1
DICPCG:  Solving for T, Initial residual = 0, Final residual = 0, No Iterations 0
ExecutionTime = 0.21 s  ClockTime = 0 s

Time = 0.765

DICPCG:  Solving for T, Initial residual = 1, Final residual = 0, No Iterations 1
DICPCG:  Solving for T, Initial residual = 0, Final residual = 0, No Iterations 0
DICPCG:  Solving for T, Initial residual = 0, Final residual = 0, No Iterations 0
ExecutionTime = 0.21 s  ClockTime = 0 s

Time = 0.77

DICPCG:  Solving for T, Initial residual = 1, Final residual = 0, No Iterations 1
DICPCG:  Solving for T, Initial residual = 0, Final residual = 0, No Iterations 0
DICPCG:  Solving for T, Initial residual = 0, Final residual = 0, No Iterations 0
ExecutionTime = 0.21 s  ClockTime = 0 s

Time = 0.775

DICPCG:  Solving for T, Initial residual = 1, Final residual = 0, No Iterations 1
DICPCG:  Solving for T, Initial residual = 1, Final residual = 0, No Iterations 1
DICPCG:  Solving for T, Initial residual = 0, Final residual = 0, No Iterations 0
ExecutionTime = 0.21 s  ClockTime = 0 s

Time = 0.78

DICPCG:  Solving for T, Initial residual = 1, Final residual = 0, No Iterations 1
DICPCG:  Solving for T, Initial residual = 0, Final residual = 0, No Iterations 0
DICPCG:  Solving for T, Initial residual = 0, Final residual = 0, No Iterations 0
ExecutionTime = 0.21 s  ClockTime = 0 s

Time = 0.785

DICPCG:  Solving for T, Initial residual = 1, Final residual = 0, No Iterations 1
DICPCG:  Solving for T, Initial residual = 1, Final residual = 0, No Iterations 1
DICPCG:  Solving for T, Initial residual = 0, Final residual = 0, No Iterations 0
ExecutionTime = 0.21 s  ClockTime = 0 s

Time = 0.79

DICPCG:  Solving for T, Initial residual = 1, Final residual = 0, No Iterations 1
DICPCG:  Solving for T, Initial residual = 1, Final residual = 0, No Iterations 1
DICPCG:  Solving for T, Initial residual = 0, Final residual = 0, No Iterations 0
ExecutionTime = 0.21 s  ClockTime = 0 s

Time = 0.795

DICPCG:  Solving for T, Initial residual = 1, Final residual = 0, No Iterations 1
DICPCG:  Solving for T, Initial residual = 1, Final residual = 0, No Iterations 1
DICPCG:  Solving for T, Initial residual = 0, Final residual = 0, No Iterations 0
ExecutionTime = 0.22 s  ClockTime = 0 s

Time = 0.8

DICPCG:  Solving for T, Initial residual = 1, Final residual = 1.32453e-17, No Iterations 1
DICPCG:  Solving for T, Initial residual = 1, Final residual = 0, No Iterations 1
DICPCG:  Solving for T, Initial residual = 0, Final residual = 0, No Iterations 0
ExecutionTime = 0.22 s  ClockTime = 0 s

Time = 0.805

DICPCG:  Solving for T, Initial residual = 1, Final residual = 0, No Iterations 1
DICPCG:  Solving for T, Initial residual = 0, Final residual = 0, No Iterations 0
DICPCG:  Solving for T, Initial residual = 0, Final residual = 0, No Iterations 0
ExecutionTime = 0.22 s  ClockTime = 0 s

Time = 0.81

DICPCG:  Solving for T, Initial residual = 1, Final residual = 1.32453e-17, No Iterations 1
DICPCG:  Solving for T, Initial residual = 0, Final residual = 0, No Iterations 0
DICPCG:  Solving for T, Initial residual = 0, Final residual = 0, No Iterations 0
ExecutionTime = 0.22 s  ClockTime = 0 s

Time = 0.815

DICPCG:  Solving for T, Initial residual = 1, Final residual = 0, No Iterations 1
DICPCG:  Solving for T, Initial residual = 0, Final residual = 0, No Iterations 0
DICPCG:  Solving for T, Initial residual = 0, Final residual = 0, No Iterations 0
ExecutionTime = 0.22 s  ClockTime = 0 s

Time = 0.82

DICPCG:  Solving for T, Initial residual = 1, Final residual = 0, No Iterations 1
DICPCG:  Solving for T, Initial residual = 0, Final residual = 0, No Iterations 0
DICPCG:  Solving for T, Initial residual = 0, Final residual = 0, No Iterations 0
ExecutionTime = 0.22 s  ClockTime = 0 s

Time = 0.825

DICPCG:  Solving for T, Initial residual = 1, Final residual = 0, No Iterations 1
DICPCG:  Solving for T, Initial residual = 1, Final residual = 0, No Iterations 1
DICPCG:  Solving for T, Initial residual = 0, Final residual = 0, No Iterations 0
ExecutionTime = 0.22 s  ClockTime = 0 s

Time = 0.83

DICPCG:  Solving for T, Initial residual = 1, Final residual = 1.32453e-17, No Iterations 1
DICPCG:  Solving for T, Initial residual = 0, Final residual = 0, No Iterations 0
DICPCG:  Solving for T, Initial residual = 0, Final residual = 0, No Iterations 0
ExecutionTime = 0.22 s  ClockTime = 0 s

Time = 0.835

DICPCG:  Solving for T, Initial residual = 1, Final residual = 1.32453e-17, No Iterations 1
DICPCG:  Solving for T, Initial residual = 0, Final residual = 0, No Iterations 0
DICPCG:  Solving for T, Initial residual = 0, Final residual = 0, No Iterations 0
ExecutionTime = 0.23 s  ClockTime = 0 s

Time = 0.84

DICPCG:  Solving for T, Initial residual = 1, Final residual = 1.32453e-17, No Iterations 1
DICPCG:  Solving for T, Initial residual = 0, Final residual = 0, No Iterations 0
DICPCG:  Solving for T, Initial residual = 0, Final residual = 0, No Iterations 0
ExecutionTime = 0.23 s  ClockTime = 0 s

Time = 0.845

DICPCG:  Solving for T, Initial residual = 1, Final residual = 1.32453e-17, No Iterations 1
DICPCG:  Solving for T, Initial residual = 0, Final residual = 0, No Iterations 0
DICPCG:  Solving for T, Initial residual = 0, Final residual = 0, No Iterations 0
ExecutionTime = 0.23 s  ClockTime = 0 s

Time = 0.85

DICPCG:  Solving for T, Initial residual = 1, Final residual = 0, No Iterations 1
DICPCG:  Solving for T, Initial residual = 0, Final residual = 0, No Iterations 0
DICPCG:  Solving for T, Initial residual = 0, Final residual = 0, No Iterations 0
ExecutionTime = 0.23 s  ClockTime = 0 s

Time = 0.855

DICPCG:  Solving for T, Initial residual = 1, Final residual = 0, No Iterations 1
DICPCG:  Solving for T, Initial residual = 0, Final residual = 0, No Iterations 0
DICPCG:  Solving for T, Initial residual = 0, Final residual = 0, No Iterations 0
ExecutionTime = 0.23 s  ClockTime = 0 s

Time = 0.86

DICPCG:  Solving for T, Initial residual = 1, Final residual = 1.32453e-17, No Iterations 1
DICPCG:  Solving for T, Initial residual = 0, Final residual = 0, No Iterations 0
DICPCG:  Solving for T, Initial residual = 0, Final residual = 0, No Iterations 0
ExecutionTime = 0.23 s  ClockTime = 0 s

Time = 0.865

DICPCG:  Solving for T, Initial residual = 1, Final residual = 0, No Iterations 1
DICPCG:  Solving for T, Initial residual = 0, Final residual = 0, No Iterations 0
DICPCG:  Solving for T, Initial residual = 0, Final residual = 0, No Iterations 0
ExecutionTime = 0.23 s  ClockTime = 0 s

Time = 0.87

DICPCG:  Solving for T, Initial residual = 1, Final residual = 1.32453e-17, No Iterations 1
DICPCG:  Solving for T, Initial residual = 0, Final residual = 0, No Iterations 0
DICPCG:  Solving for T, Initial residual = 0, Final residual = 0, No Iterations 0
ExecutionTime = 0.23 s  ClockTime = 0 s

Time = 0.875

DICPCG:  Solving for T, Initial residual = 1, Final residual = 1.32453e-17, No Iterations 1
DICPCG:  Solving for T, Initial residual = 0, Final residual = 0, No Iterations 0
DICPCG:  Solving for T, Initial residual = 0, Final residual = 0, No Iterations 0
ExecutionTime = 0.24 s  ClockTime = 0 s

Time = 0.88

DICPCG:  Solving for T, Initial residual = 1, Final residual = 0, No Iterations 1
DICPCG:  Solving for T, Initial residual = 0, Final residual = 0, No Iterations 0
DICPCG:  Solving for T, Initial residual = 0, Final residual = 0, No Iterations 0
ExecutionTime = 0.24 s  ClockTime = 0 s

Time = 0.885

DICPCG:  Solving for T, Initial residual = 1, Final residual = 1.32453e-17, No Iterations 1
DICPCG:  Solving for T, Initial residual = 0, Final residual = 0, No Iterations 0
DICPCG:  Solving for T, Initial residual = 0, Final residual = 0, No Iterations 0
ExecutionTime = 0.24 s  ClockTime = 0 s

Time = 0.89

DICPCG:  Solving for T, Initial residual = 1, Final residual = 0, No Iterations 1
DICPCG:  Solving for T, Initial residual = 0, Final residual = 0, No Iterations 0
DICPCG:  Solving for T, Initial residual = 0, Final residual = 0, No Iterations 0
ExecutionTime = 0.24 s  ClockTime = 0 s

Time = 0.895

DICPCG:  Solving for T, Initial residual = 1, Final residual = 0, No Iterations 1
DICPCG:  Solving for T, Initial residual = 0, Final residual = 0, No Iterations 0
DICPCG:  Solving for T, Initial residual = 0, Final residual = 0, No Iterations 0
ExecutionTime = 0.24 s  ClockTime = 0 s

Time = 0.9

DICPCG:  Solving for T, Initial residual = 1, Final residual = 0, No Iterations 1
DICPCG:  Solving for T, Initial residual = 0, Final residual = 0, No Iterations 0
DICPCG:  Solving for T, Initial residual = 0, Final residual = 0, No Iterations 0
ExecutionTime = 0.24 s  ClockTime = 0 s

Time = 0.905

DICPCG:  Solving for T, Initial residual = 1, Final residual = 0, No Iterations 1
DICPCG:  Solving for T, Initial residual = 0, Final residual = 0, No Iterations 0
DICPCG:  Solving for T, Initial residual = 0, Final residual = 0, No Iterations 0
ExecutionTime = 0.24 s  ClockTime = 0 s

Time = 0.91

DICPCG:  Solving for T, Initial residual = 1, Final residual = 0, No Iterations 1
DICPCG:  Solving for T, Initial residual = 0, Final residual = 0, No Iterations 0
DICPCG:  Solving for T, Initial residual = 0, Final residual = 0, No Iterations 0
ExecutionTime = 0.24 s  ClockTime = 0 s

Time = 0.915

DICPCG:  Solving for T, Initial residual = 1, Final residual = 0, No Iterations 1
DICPCG:  Solving for T, Initial residual = 1, Final residual = 0, No Iterations 1
DICPCG:  Solving for T, Initial residual = 0, Final residual = 0, No Iterations 0
ExecutionTime = 0.24 s  ClockTime = 1 s

Time = 0.92

DICPCG:  Solving for T, Initial residual = 1, Final residual = 0, No Iterations 1
DICPCG:  Solving for T, Initial residual = 0, Final residual = 0, No Iterations 0
DICPCG:  Solving for T, Initial residual = 0, Final residual = 0, No Iterations 0
ExecutionTime = 0.24 s  ClockTime = 1 s

Time = 0.925

DICPCG:  Solving for T, Initial residual = 1, Final residual = 0, No Iterations 1
DICPCG:  Solving for T, Initial residual = 1, Final residual = 0, No Iterations 1
DICPCG:  Solving for T, Initial residual = 0, Final residual = 0, No Iterations 0
ExecutionTime = 0.24 s  ClockTime = 1 s

Time = 0.93

DICPCG:  Solving for T, Initial residual = 1, Final residual = 0, No Iterations 1
DICPCG:  Solving for T, Initial residual = 1, Final residual = 0, No Iterations 1
DICPCG:  Solving for T, Initial residual = 0, Final residual = 0, No Iterations 0
ExecutionTime = 0.25 s  ClockTime = 1 s

Time = 0.935

DICPCG:  Solving for T, Initial residual = 1, Final residual = 0, No Iterations 1
DICPCG:  Solving for T, Initial residual = 0, Final residual = 0, No Iterations 0
DICPCG:  Solving for T, Initial residual = 0, Final residual = 0, No Iterations 0
ExecutionTime = 0.25 s  ClockTime = 1 s

Time = 0.94

DICPCG:  Solving for T, Initial residual = 1, Final residual = 0, No Iterations 1
DICPCG:  Solving for T, Initial residual = 1, Final residual = 0, No Iterations 1
DICPCG:  Solving for T, Initial residual = 0, Final residual = 0, No Iterations 0
ExecutionTime = 0.25 s  ClockTime = 1 s

Time = 0.945

DICPCG:  Solving for T, Initial residual = 1, Final residual = 0, No Iterations 1
DICPCG:  Solving for T, Initial residual = 0, Final residual = 0, No Iterations 0
DICPCG:  Solving for T, Initial residual = 0, Final residual = 0, No Iterations 0
ExecutionTime = 0.25 s  ClockTime = 1 s

Time = 0.95

DICPCG:  Solving for T, Initial residual = 1, Final residual = 0, No Iterations 1
DICPCG:  Solving for T, Initial residual = 0, Final residual = 0, No Iterations 0
DICPCG:  Solving for T, Initial residual = 0, Final residual = 0, No Iterations 0
ExecutionTime = 0.25 s  ClockTime = 1 s

Time = 0.955

DICPCG:  Solving for T, Initial residual = 1, Final residual = 0, No Iterations 1
DICPCG:  Solving for T, Initial residual = 0, Final residual = 0, No Iterations 0
DICPCG:  Solving for T, Initial residual = 0, Final residual = 0, No Iterations 0
ExecutionTime = 0.25 s  ClockTime = 1 s

Time = 0.96

DICPCG:  Solving for T, Initial residual = 1, Final residual = 0, No Iterations 1
DICPCG:  Solving for T, Initial residual = 0, Final residual = 0, No Iterations 0
DICPCG:  Solving for T, Initial residual = 0, Final residual = 0, No Iterations 0
ExecutionTime = 0.26 s  ClockTime = 1 s

Time = 0.965

DICPCG:  Solving for T, Initial residual = 1, Final residual = 0, No Iterations 1
DICPCG:  Solving for T, Initial residual = 0, Final residual = 0, No Iterations 0
DICPCG:  Solving for T, Initial residual = 0, Final residual = 0, No Iterations 0
ExecutionTime = 0.26 s  ClockTime = 1 s

Time = 0.97

DICPCG:  Solving for T, Initial residual = 1, Final residual = 0, No Iterations 1
DICPCG:  Solving for T, Initial residual = 0, Final residual = 0, No Iterations 0
DICPCG:  Solving for T, Initial residual = 0, Final residual = 0, No Iterations 0
ExecutionTime = 0.26 s  ClockTime = 1 s

Time = 0.975

DICPCG:  Solving for T, Initial residual = 1, Final residual = 0, No Iterations 1
DICPCG:  Solving for T, Initial residual = 0, Final residual = 0, No Iterations 0
DICPCG:  Solving for T, Initial residual = 0, Final residual = 0, No Iterations 0
ExecutionTime = 0.26 s  ClockTime = 1 s

Time = 0.98

DICPCG:  Solving for T, Initial residual = 1, Final residual = 0, No Iterations 1
DICPCG:  Solving for T, Initial residual = 0, Final residual = 0, No Iterations 0
DICPCG:  Solving for T, Initial residual = 0, Final residual = 0, No Iterations 0
ExecutionTime = 0.26 s  ClockTime = 1 s

Time = 0.985

DICPCG:  Solving for T, Initial residual = 1, Final residual = 0, No Iterations 1
DICPCG:  Solving for T, Initial residual = 0, Final residual = 0, No Iterations 0
DICPCG:  Solving for T, Initial residual = 0, Final residual = 0, No Iterations 0
ExecutionTime = 0.26 s  ClockTime = 1 s

Time = 0.99

DICPCG:  Solving for T, Initial residual = 1, Final residual = 0, No Iterations 1
DICPCG:  Solving for T, Initial residual = 0, Final residual = 0, No Iterations 0
DICPCG:  Solving for T, Initial residual = 0, Final residual = 0, No Iterations 0
ExecutionTime = 0.26 s  ClockTime = 1 s

Time = 0.995

DICPCG:  Solving for T, Initial residual = 1, Final residual = 0, No Iterations 1
DICPCG:  Solving for T, Initial residual = 0, Final residual = 0, No Iterations 0
DICPCG:  Solving for T, Initial residual = 0, Final residual = 0, No Iterations 0
ExecutionTime = 0.26 s  ClockTime = 1 s

Time = 1

DICPCG:  Solving for T, Initial residual = 1, Final residual = 0, No Iterations 1
DICPCG:  Solving for T, Initial residual = 0, Final residual = 0, No Iterations 0
DICPCG:  Solving for T, Initial residual = 0, Final residual = 0, No Iterations 0
ExecutionTime = 0.26 s  ClockTime = 1 s

Time = 1.005

DICPCG:  Solving for T, Initial residual = 1, Final residual = 0, No Iterations 1
DICPCG:  Solving for T, Initial residual = 0, Final residual = 0, No Iterations 0
DICPCG:  Solving for T, Initial residual = 0, Final residual = 0, No Iterations 0
ExecutionTime = 0.27 s  ClockTime = 1 s

Time = 1.01

DICPCG:  Solving for T, Initial residual = 1, Final residual = 0, No Iterations 1
DICPCG:  Solving for T, Initial residual = 0, Final residual = 0, No Iterations 0
DICPCG:  Solving for T, Initial residual = 0, Final residual = 0, No Iterations 0
ExecutionTime = 0.27 s  ClockTime = 1 s

Time = 1.015

DICPCG:  Solving for T, Initial residual = 1, Final residual = 1.32453e-17, No Iterations 1
DICPCG:  Solving for T, Initial residual = 0, Final residual = 0, No Iterations 0
DICPCG:  Solving for T, Initial residual = 0, Final residual = 0, No Iterations 0
ExecutionTime = 0.27 s  ClockTime = 1 s

Time = 1.02

DICPCG:  Solving for T, Initial residual = 1, Final residual = 0, No Iterations 1
DICPCG:  Solving for T, Initial residual = 0, Final residual = 0, No Iterations 0
DICPCG:  Solving for T, Initial residual = 0, Final residual = 0, No Iterations 0
ExecutionTime = 0.27 s  ClockTime = 1 s

Time = 1.025

DICPCG:  Solving for T, Initial residual = 1, Final residual = 1.32453e-17, No Iterations 1
DICPCG:  Solving for T, Initial residual = 0, Final residual = 0, No Iterations 0
DICPCG:  Solving for T, Initial residual = 0, Final residual = 0, No Iterations 0
ExecutionTime = 0.27 s  ClockTime = 1 s

Time = 1.03

DICPCG:  Solving for T, Initial residual = 1, Final residual = 1.32453e-17, No Iterations 1
DICPCG:  Solving for T, Initial residual = 1, Final residual = 0, No Iterations 1
DICPCG:  Solving for T, Initial residual = 0, Final residual = 0, No Iterations 0
ExecutionTime = 0.27 s  ClockTime = 1 s

Time = 1.035

DICPCG:  Solving for T, Initial residual = 1, Final residual = 0, No Iterations 1
DICPCG:  Solving for T, Initial residual = 0, Final residual = 0, No Iterations 0
DICPCG:  Solving for T, Initial residual = 0, Final residual = 0, No Iterations 0
ExecutionTime = 0.27 s  ClockTime = 1 s

Time = 1.04

DICPCG:  Solving for T, Initial residual = 1, Final residual = 1.32453e-17, No Iterations 1
DICPCG:  Solving for T, Initial residual = 0, Final residual = 0, No Iterations 0
DICPCG:  Solving for T, Initial residual = 0, Final residual = 0, No Iterations 0
ExecutionTime = 0.28 s  ClockTime = 1 s

Time = 1.045

DICPCG:  Solving for T, Initial residual = 1, Final residual = 1.32453e-17, No Iterations 1
DICPCG:  Solving for T, Initial residual = 0, Final residual = 0, No Iterations 0
DICPCG:  Solving for T, Initial residual = 0, Final residual = 0, No Iterations 0
ExecutionTime = 0.28 s  ClockTime = 1 s

Time = 1.05

DICPCG:  Solving for T, Initial residual = 1, Final residual = 1.9227e-16, No Iterations 1
DICPCG:  Solving for T, Initial residual = 0, Final residual = 0, No Iterations 0
DICPCG:  Solving for T, Initial residual = 0, Final residual = 0, No Iterations 0
ExecutionTime = 0.28 s  ClockTime = 1 s

Time = 1.055

DICPCG:  Solving for T, Initial residual = 1, Final residual = 0, No Iterations 1
DICPCG:  Solving for T, Initial residual = 1, Final residual = 0, No Iterations 1
DICPCG:  Solving for T, Initial residual = 0, Final residual = 0, No Iterations 0
ExecutionTime = 0.28 s  ClockTime = 1 s

Time = 1.06

DICPCG:  Solving for T, Initial residual = 1, Final residual = 1.32453e-17, No Iterations 1
DICPCG:  Solving for T, Initial residual = 0, Final residual = 0, No Iterations 0
DICPCG:  Solving for T, Initial residual = 0, Final residual = 0, No Iterations 0
ExecutionTime = 0.28 s  ClockTime = 1 s

Time = 1.065

DICPCG:  Solving for T, Initial residual = 1, Final residual = 0, No Iterations 1
DICPCG:  Solving for T, Initial residual = 0, Final residual = 0, No Iterations 0
DICPCG:  Solving for T, Initial residual = 0, Final residual = 0, No Iterations 0
ExecutionTime = 0.28 s  ClockTime = 1 s

Time = 1.07

DICPCG:  Solving for T, Initial residual = 1, Final residual = 1.32453e-17, No Iterations 1
DICPCG:  Solving for T, Initial residual = 1, Final residual = 0, No Iterations 1
DICPCG:  Solving for T, Initial residual = 0, Final residual = 0, No Iterations 0
ExecutionTime = 0.28 s  ClockTime = 1 s

Time = 1.075

DICPCG:  Solving for T, Initial residual = 1, Final residual = 1.32453e-17, No Iterations 1
DICPCG:  Solving for T, Initial residual = 0, Final residual = 0, No Iterations 0
DICPCG:  Solving for T, Initial residual = 0, Final residual = 0, No Iterations 0
ExecutionTime = 0.28 s  ClockTime = 1 s

Time = 1.08

DICPCG:  Solving for T, Initial residual = 1, Final residual = 0, No Iterations 1
DICPCG:  Solving for T, Initial residual = 1, Final residual = 0, No Iterations 1
DICPCG:  Solving for T, Initial residual = 0, Final residual = 0, No Iterations 0
ExecutionTime = 0.28 s  ClockTime = 1 s

Time = 1.085

DICPCG:  Solving for T, Initial residual = 1, Final residual = 1.32453e-17, No Iterations 1
DICPCG:  Solving for T, Initial residual = 0, Final residual = 0, No Iterations 0
DICPCG:  Solving for T, Initial residual = 0, Final residual = 0, No Iterations 0
ExecutionTime = 0.28 s  ClockTime = 1 s

Time = 1.09

DICPCG:  Solving for T, Initial residual = 1, Final residual = 0, No Iterations 1
DICPCG:  Solving for T, Initial residual = 0, Final residual = 0, No Iterations 0
DICPCG:  Solving for T, Initial residual = 0, Final residual = 0, No Iterations 0
ExecutionTime = 0.29 s  ClockTime = 1 s

Time = 1.095

DICPCG:  Solving for T, Initial residual = 1, Final residual = 0, No Iterations 1
DICPCG:  Solving for T, Initial residual = 1, Final residual = 0, No Iterations 1
DICPCG:  Solving for T, Initial residual = 0, Final residual = 0, No Iterations 0
ExecutionTime = 0.29 s  ClockTime = 1 s

Time = 1.1

DICPCG:  Solving for T, Initial residual = 1, Final residual = 1.32453e-17, No Iterations 1
DICPCG:  Solving for T, Initial residual = 0, Final residual = 0, No Iterations 0
DICPCG:  Solving for T, Initial residual = 0, Final residual = 0, No Iterations 0
ExecutionTime = 0.3 s  ClockTime = 1 s

Time = 1.105

DICPCG:  Solving for T, Initial residual = 1, Final residual = 0, No Iterations 1
DICPCG:  Solving for T, Initial residual = 1, Final residual = 0, No Iterations 1
DICPCG:  Solving for T, Initial residual = 0, Final residual = 0, No Iterations 0
ExecutionTime = 0.3 s  ClockTime = 1 s

Time = 1.11

DICPCG:  Solving for T, Initial residual = 1, Final residual = 0, No Iterations 1
DICPCG:  Solving for T, Initial residual = 0, Final residual = 0, No Iterations 0
DICPCG:  Solving for T, Initial residual = 0, Final residual = 0, No Iterations 0
ExecutionTime = 0.3 s  ClockTime = 1 s

Time = 1.115

DICPCG:  Solving for T, Initial residual = 1, Final residual = 0, No Iterations 1
DICPCG:  Solving for T, Initial residual = 0, Final residual = 0, No Iterations 0
DICPCG:  Solving for T, Initial residual = 0, Final residual = 0, No Iterations 0
ExecutionTime = 0.3 s  ClockTime = 1 s

Time = 1.12

DICPCG:  Solving for T, Initial residual = 1, Final residual = 0, No Iterations 1
DICPCG:  Solving for T, Initial residual = 1, Final residual = 0, No Iterations 1
DICPCG:  Solving for T, Initial residual = 0, Final residual = 0, No Iterations 0
ExecutionTime = 0.3 s  ClockTime = 1 s

Time = 1.125

DICPCG:  Solving for T, Initial residual = 1, Final residual = 0, No Iterations 1
DICPCG:  Solving for T, Initial residual = 0, Final residual = 0, No Iterations 0
DICPCG:  Solving for T, Initial residual = 0, Final residual = 0, No Iterations 0
ExecutionTime = 0.3 s  ClockTime = 1 s

Time = 1.13

DICPCG:  Solving for T, Initial residual = 1, Final residual = 0, No Iterations 1
DICPCG:  Solving for T, Initial residual = 0, Final residual = 0, No Iterations 0
DICPCG:  Solving for T, Initial residual = 0, Final residual = 0, No Iterations 0
ExecutionTime = 0.31 s  ClockTime = 1 s

Time = 1.135

DICPCG:  Solving for T, Initial residual = 1, Final residual = 0, No Iterations 1
DICPCG:  Solving for T, Initial residual = 0, Final residual = 0, No Iterations 0
DICPCG:  Solving for T, Initial residual = 0, Final residual = 0, No Iterations 0
ExecutionTime = 0.31 s  ClockTime = 1 s

Time = 1.14

DICPCG:  Solving for T, Initial residual = 1, Final residual = 0, No Iterations 1
DICPCG:  Solving for T, Initial residual = 0, Final residual = 0, No Iterations 0
DICPCG:  Solving for T, Initial residual = 0, Final residual = 0, No Iterations 0
ExecutionTime = 0.31 s  ClockTime = 1 s

Time = 1.145

DICPCG:  Solving for T, Initial residual = 1, Final residual = 0, No Iterations 1
DICPCG:  Solving for T, Initial residual = 1, Final residual = 0, No Iterations 1
DICPCG:  Solving for T, Initial residual = 0, Final residual = 0, No Iterations 0
ExecutionTime = 0.31 s  ClockTime = 1 s

Time = 1.15

DICPCG:  Solving for T, Initial residual = 1, Final residual = 0, No Iterations 1
DICPCG:  Solving for T, Initial residual = 0, Final residual = 0, No Iterations 0
DICPCG:  Solving for T, Initial residual = 0, Final residual = 0, No Iterations 0
ExecutionTime = 0.31 s  ClockTime = 1 s

Time = 1.155

DICPCG:  Solving for T, Initial residual = 1, Final residual = 0, No Iterations 1
DICPCG:  Solving for T, Initial residual = 0, Final residual = 0, No Iterations 0
DICPCG:  Solving for T, Initial residual = 0, Final residual = 0, No Iterations 0
ExecutionTime = 0.31 s  ClockTime = 1 s

Time = 1.16

DICPCG:  Solving for T, Initial residual = 1, Final residual = 0, No Iterations 1
DICPCG:  Solving for T, Initial residual = 0, Final residual = 0, No Iterations 0
DICPCG:  Solving for T, Initial residual = 0, Final residual = 0, No Iterations 0
ExecutionTime = 0.31 s  ClockTime = 1 s

Time = 1.165

DICPCG:  Solving for T, Initial residual = 1, Final residual = 0, No Iterations 1
DICPCG:  Solving for T, Initial residual = 0, Final residual = 0, No Iterations 0
DICPCG:  Solving for T, Initial residual = 0, Final residual = 0, No Iterations 0
ExecutionTime = 0.31 s  ClockTime = 1 s

Time = 1.17

DICPCG:  Solving for T, Initial residual = 1, Final residual = 0, No Iterations 1
DICPCG:  Solving for T, Initial residual = 0, Final residual = 0, No Iterations 0
DICPCG:  Solving for T, Initial residual = 0, Final residual = 0, No Iterations 0
ExecutionTime = 0.31 s  ClockTime = 1 s

Time = 1.175

DICPCG:  Solving for T, Initial residual = 1, Final residual = 0, No Iterations 1
DICPCG:  Solving for T, Initial residual = 0, Final residual = 0, No Iterations 0
DICPCG:  Solving for T, Initial residual = 0, Final residual = 0, No Iterations 0
ExecutionTime = 0.31 s  ClockTime = 1 s

Time = 1.18

DICPCG:  Solving for T, Initial residual = 1, Final residual = 0, No Iterations 1
DICPCG:  Solving for T, Initial residual = 0, Final residual = 0, No Iterations 0
DICPCG:  Solving for T, Initial residual = 0, Final residual = 0, No Iterations 0
ExecutionTime = 0.31 s  ClockTime = 1 s

Time = 1.185

DICPCG:  Solving for T, Initial residual = 1, Final residual = 0, No Iterations 1
DICPCG:  Solving for T, Initial residual = 0, Final residual = 0, No Iterations 0
DICPCG:  Solving for T, Initial residual = 0, Final residual = 0, No Iterations 0
ExecutionTime = 0.31 s  ClockTime = 1 s

Time = 1.19

DICPCG:  Solving for T, Initial residual = 1, Final residual = 0, No Iterations 1
DICPCG:  Solving for T, Initial residual = 0, Final residual = 0, No Iterations 0
DICPCG:  Solving for T, Initial residual = 0, Final residual = 0, No Iterations 0
ExecutionTime = 0.31 s  ClockTime = 1 s

Time = 1.195

DICPCG:  Solving for T, Initial residual = 1, Final residual = 0, No Iterations 1
DICPCG:  Solving for T, Initial residual = 0, Final residual = 0, No Iterations 0
DICPCG:  Solving for T, Initial residual = 0, Final residual = 0, No Iterations 0
ExecutionTime = 0.31 s  ClockTime = 1 s

Time = 1.2

DICPCG:  Solving for T, Initial residual = 1, Final residual = 0, No Iterations 1
DICPCG:  Solving for T, Initial residual = 0, Final residual = 0, No Iterations 0
DICPCG:  Solving for T, Initial residual = 0, Final residual = 0, No Iterations 0
ExecutionTime = 0.32 s  ClockTime = 1 s

Time = 1.205

DICPCG:  Solving for T, Initial residual = 1, Final residual = 0, No Iterations 1
DICPCG:  Solving for T, Initial residual = 1, Final residual = 0, No Iterations 1
DICPCG:  Solving for T, Initial residual = 1, Final residual = 0, No Iterations 1
ExecutionTime = 0.32 s  ClockTime = 1 s

Time = 1.21

DICPCG:  Solving for T, Initial residual = 1, Final residual = 0, No Iterations 1
DICPCG:  Solving for T, Initial residual = 1, Final residual = 0, No Iterations 1
DICPCG:  Solving for T, Initial residual = 1, Final residual = 0, No Iterations 1
ExecutionTime = 0.32 s  ClockTime = 1 s

Time = 1.215

DICPCG:  Solving for T, Initial residual = 1, Final residual = 0, No Iterations 1
DICPCG:  Solving for T, Initial residual = 1, Final residual = 0, No Iterations 1
DICPCG:  Solving for T, Initial residual = 1, Final residual = 0, No Iterations 1
ExecutionTime = 0.32 s  ClockTime = 1 s

Time = 1.22

DICPCG:  Solving for T, Initial residual = 1, Final residual = 0, No Iterations 1
DICPCG:  Solving for T, Initial residual = 1, Final residual = 0, No Iterations 1
DICPCG:  Solving for T, Initial residual = 1, Final residual = 0, No Iterations 1
ExecutionTime = 0.32 s  ClockTime = 1 s

Time = 1.225

DICPCG:  Solving for T, Initial residual = 1, Final residual = 0, No Iterations 1
DICPCG:  Solving for T, Initial residual = 1, Final residual = 0, No Iterations 1
DICPCG:  Solving for T, Initial residual = 1, Final residual = 0, No Iterations 1
ExecutionTime = 0.33 s  ClockTime = 1 s

Time = 1.23

DICPCG:  Solving for T, Initial residual = 1, Final residual = 0, No Iterations 1
DICPCG:  Solving for T, Initial residual = 1, Final residual = 0, No Iterations 1
DICPCG:  Solving for T, Initial residual = 1, Final residual = 0, No Iterations 1
ExecutionTime = 0.33 s  ClockTime = 1 s

Time = 1.235

DICPCG:  Solving for T, Initial residual = 1, Final residual = 0, No Iterations 1
DICPCG:  Solving for T, Initial residual = 0, Final residual = 0, No Iterations 0
DICPCG:  Solving for T, Initial residual = 0, Final residual = 0, No Iterations 0
ExecutionTime = 0.33 s  ClockTime = 1 s

Time = 1.24

DICPCG:  Solving for T, Initial residual = 1, Final residual = 1.32453e-17, No Iterations 1
DICPCG:  Solving for T, Initial residual = 1, Final residual = 0, No Iterations 1
DICPCG:  Solving for T, Initial residual = 1, Final residual = 0, No Iterations 1
ExecutionTime = 0.33 s  ClockTime = 1 s

Time = 1.245

DICPCG:  Solving for T, Initial residual = 1, Final residual = 0, No Iterations 1
DICPCG:  Solving for T, Initial residual = 1, Final residual = 0, No Iterations 1
DICPCG:  Solving for T, Initial residual = 1, Final residual = 0, No Iterations 1
ExecutionTime = 0.33 s  ClockTime = 1 s

Time = 1.25

DICPCG:  Solving for T, Initial residual = 1, Final residual = 1.32453e-17, No Iterations 1
DICPCG:  Solving for T, Initial residual = 0, Final residual = 0, No Iterations 0
DICPCG:  Solving for T, Initial residual = 0, Final residual = 0, No Iterations 0
ExecutionTime = 0.33 s  ClockTime = 1 s

Time = 1.255

DICPCG:  Solving for T, Initial residual = 1, Final residual = 1.32453e-17, No Iterations 1
DICPCG:  Solving for T, Initial residual = 1, Final residual = 0, No Iterations 1
DICPCG:  Solving for T, Initial residual = 1, Final residual = 0, No Iterations 1
ExecutionTime = 0.33 s  ClockTime = 1 s

Time = 1.26

DICPCG:  Solving for T, Initial residual = 1, Final residual = 1.32453e-17, No Iterations 1
DICPCG:  Solving for T, Initial residual = 1, Final residual = 0, No Iterations 1
DICPCG:  Solving for T, Initial residual = 1, Final residual = 0, No Iterations 1
ExecutionTime = 0.34 s  ClockTime = 1 s

Time = 1.265

DICPCG:  Solving for T, Initial residual = 1, Final residual = 0, No Iterations 1
DICPCG:  Solving for T, Initial residual = 0, Final residual = 0, No Iterations 0
DICPCG:  Solving for T, Initial residual = 0, Final residual = 0, No Iterations 0
ExecutionTime = 0.34 s  ClockTime = 1 s

Time = 1.27

DICPCG:  Solving for T, Initial residual = 1, Final residual = 0, No Iterations 1
DICPCG:  Solving for T, Initial residual = 0, Final residual = 0, No Iterations 0
DICPCG:  Solving for T, Initial residual = 0, Final residual = 0, No Iterations 0
ExecutionTime = 0.34 s  ClockTime = 1 s

Time = 1.275

DICPCG:  Solving for T, Initial residual = 1, Final residual = 0, No Iterations 1
DICPCG:  Solving for T, Initial residual = 0, Final residual = 0, No Iterations 0
DICPCG:  Solving for T, Initial residual = 0, Final residual = 0, No Iterations 0
ExecutionTime = 0.34 s  ClockTime = 1 s

Time = 1.28

DICPCG:  Solving for T, Initial residual = 1, Final residual = 1.32453e-17, No Iterations 1
DICPCG:  Solving for T, Initial residual = 0, Final residual = 0, No Iterations 0
DICPCG:  Solving for T, Initial residual = 0, Final residual = 0, No Iterations 0
ExecutionTime = 0.34 s  ClockTime = 1 s

Time = 1.285

DICPCG:  Solving for T, Initial residual = 1, Final residual = 0, No Iterations 1
DICPCG:  Solving for T, Initial residual = 0, Final residual = 0, No Iterations 0
DICPCG:  Solving for T, Initial residual = 0, Final residual = 0, No Iterations 0
ExecutionTime = 0.34 s  ClockTime = 1 s

Time = 1.29

DICPCG:  Solving for T, Initial residual = 1, Final residual = 0, No Iterations 1
DICPCG:  Solving for T, Initial residual = 1, Final residual = 0, No Iterations 1
DICPCG:  Solving for T, Initial residual = 0, Final residual = 0, No Iterations 0
ExecutionTime = 0.34 s  ClockTime = 1 s

Time = 1.295

DICPCG:  Solving for T, Initial residual = 1, Final residual = 0, No Iterations 1
DICPCG:  Solving for T, Initial residual = 0, Final residual = 0, No Iterations 0
DICPCG:  Solving for T, Initial residual = 0, Final residual = 0, No Iterations 0
ExecutionTime = 0.35 s  ClockTime = 1 s

Time = 1.3

DICPCG:  Solving for T, Initial residual = 1, Final residual = 0, No Iterations 1
DICPCG:  Solving for T, Initial residual = 0, Final residual = 0, No Iterations 0
DICPCG:  Solving for T, Initial residual = 0, Final residual = 0, No Iterations 0
ExecutionTime = 0.35 s  ClockTime = 1 s

[...]

Time = 9.675

DICPCG:  Solving for T, Initial residual = 1, Final residual = 0, No Iterations 1
DICPCG:  Solving for T, Initial residual = 0, Final residual = 0, No Iterations 0
DICPCG:  Solving for T, Initial residual = 0, Final residual = 0, No Iterations 0
ExecutionTime = 2.65 s  ClockTime = 6 s

Time = 9.68

DICPCG:  Solving for T, Initial residual = 1, Final residual = 1.32453e-17, No Iterations 1
DICPCG:  Solving for T, Initial residual = 0, Final residual = 0, No Iterations 0
DICPCG:  Solving for T, Initial residual = 0, Final residual = 0, No Iterations 0
ExecutionTime = 2.65 s  ClockTime = 6 s

Time = 9.685

DICPCG:  Solving for T, Initial residual = 1, Final residual = 0, No Iterations 1
DICPCG:  Solving for T, Initial residual = 0, Final residual = 0, No Iterations 0
DICPCG:  Solving for T, Initial residual = 0, Final residual = 0, No Iterations 0
ExecutionTime = 2.65 s  ClockTime = 6 s

Time = 9.69

DICPCG:  Solving for T, Initial residual = 1, Final residual = 1.32453e-17, No Iterations 1
DICPCG:  Solving for T, Initial residual = 0, Final residual = 0, No Iterations 0
DICPCG:  Solving for T, Initial residual = 0, Final residual = 0, No Iterations 0
ExecutionTime = 2.65 s  ClockTime = 6 s

Time = 9.695

DICPCG:  Solving for T, Initial residual = 1, Final residual = 1.32453e-17, No Iterations 1
DICPCG:  Solving for T, Initial residual = 0, Final residual = 0, No Iterations 0
DICPCG:  Solving for T, Initial residual = 0, Final residual = 0, No Iterations 0
ExecutionTime = 2.65 s  ClockTime = 6 s

Time = 9.7

DICPCG:  Solving for T, Initial residual = 1, Final residual = 0, No Iterations 1
DICPCG:  Solving for T, Initial residual = 1, Final residual = 0, No Iterations 1
DICPCG:  Solving for T, Initial residual = 1, Final residual = 0, No Iterations 1
ExecutionTime = 2.66 s  ClockTime = 6 s

Time = 9.705

DICPCG:  Solving for T, Initial residual = 1, Final residual = 0, No Iterations 1
DICPCG:  Solving for T, Initial residual = 0, Final residual = 0, No Iterations 0
DICPCG:  Solving for T, Initial residual = 0, Final residual = 0, No Iterations 0
ExecutionTime = 2.66 s  ClockTime = 6 s

Time = 9.71

DICPCG:  Solving for T, Initial residual = 1, Final residual = 0, No Iterations 1
DICPCG:  Solving for T, Initial residual = 1, Final residual = 0, No Iterations 1
DICPCG:  Solving for T, Initial residual = 1, Final residual = 0, No Iterations 1
ExecutionTime = 2.66 s  ClockTime = 6 s

Time = 9.715

DICPCG:  Solving for T, Initial residual = 1, Final residual = 0, No Iterations 1
DICPCG:  Solving for T, Initial residual = 1, Final residual = 0, No Iterations 1
DICPCG:  Solving for T, Initial residual = 1, Final residual = 0, No Iterations 1
ExecutionTime = 2.66 s  ClockTime = 6 s

Time = 9.72

DICPCG:  Solving for T, Initial residual = 1, Final residual = 0, No Iterations 1
DICPCG:  Solving for T, Initial residual = 0, Final residual = 0, No Iterations 0
DICPCG:  Solving for T, Initial residual = 0, Final residual = 0, No Iterations 0
ExecutionTime = 2.66 s  ClockTime = 6 s

Time = 9.725

DICPCG:  Solving for T, Initial residual = 1, Final residual = 0, No Iterations 1
DICPCG:  Solving for T, Initial residual = 1, Final residual = 0, No Iterations 1
DICPCG:  Solving for T, Initial residual = 1, Final residual = 0, No Iterations 1
ExecutionTime = 2.66 s  ClockTime = 6 s

Time = 9.73

DICPCG:  Solving for T, Initial residual = 1, Final residual = 0, No Iterations 1
DICPCG:  Solving for T, Initial residual = 0, Final residual = 0, No Iterations 0
DICPCG:  Solving for T, Initial residual = 0, Final residual = 0, No Iterations 0
ExecutionTime = 2.67 s  ClockTime = 6 s

Time = 9.735

DICPCG:  Solving for T, Initial residual = 1, Final residual = 0, No Iterations 1
DICPCG:  Solving for T, Initial residual = 0, Final residual = 0, No Iterations 0
DICPCG:  Solving for T, Initial residual = 0, Final residual = 0, No Iterations 0
ExecutionTime = 2.67 s  ClockTime = 6 s

Time = 9.74

DICPCG:  Solving for T, Initial residual = 1, Final residual = 0, No Iterations 1
DICPCG:  Solving for T, Initial residual = 1, Final residual = 0, No Iterations 1
DICPCG:  Solving for T, Initial residual = 1, Final residual = 0, No Iterations 1
ExecutionTime = 2.67 s  ClockTime = 6 s

Time = 9.745

DICPCG:  Solving for T, Initial residual = 1, Final residual = 0, No Iterations 1
DICPCG:  Solving for T, Initial residual = 1, Final residual = 0, No Iterations 1
DICPCG:  Solving for T, Initial residual = 1, Final residual = 0, No Iterations 1
ExecutionTime = 2.67 s  ClockTime = 6 s

Time = 9.75

DICPCG:  Solving for T, Initial residual = 1, Final residual = 0, No Iterations 1
DICPCG:  Solving for T, Initial residual = 1, Final residual = 0, No Iterations 1
DICPCG:  Solving for T, Initial residual = 1, Final residual = 0, No Iterations 1
ExecutionTime = 2.67 s  ClockTime = 6 s

Time = 9.755

DICPCG:  Solving for T, Initial residual = 1, Final residual = 0, No Iterations 1
DICPCG:  Solving for T, Initial residual = 0, Final residual = 0, No Iterations 0
DICPCG:  Solving for T, Initial residual = 0, Final residual = 0, No Iterations 0
ExecutionTime = 2.67 s  ClockTime = 6 s

Time = 9.76

DICPCG:  Solving for T, Initial residual = 1, Final residual = 0, No Iterations 1
DICPCG:  Solving for T, Initial residual = 0, Final residual = 0, No Iterations 0
DICPCG:  Solving for T, Initial residual = 0, Final residual = 0, No Iterations 0
ExecutionTime = 2.67 s  ClockTime = 6 s

Time = 9.765

DICPCG:  Solving for T, Initial residual = 1, Final residual = 0, No Iterations 1
DICPCG:  Solving for T, Initial residual = 0, Final residual = 0, No Iterations 0
DICPCG:  Solving for T, Initial residual = 0, Final residual = 0, No Iterations 0
ExecutionTime = 2.67 s  ClockTime = 6 s

Time = 9.77

DICPCG:  Solving for T, Initial residual = 1, Final residual = 0, No Iterations 1
DICPCG:  Solving for T, Initial residual = 0, Final residual = 0, No Iterations 0
DICPCG:  Solving for T, Initial residual = 0, Final residual = 0, No Iterations 0
ExecutionTime = 2.67 s  ClockTime = 6 s

Time = 9.775

DICPCG:  Solving for T, Initial residual = 1, Final residual = 0, No Iterations 1
DICPCG:  Solving for T, Initial residual = 1, Final residual = 0, No Iterations 1
DICPCG:  Solving for T, Initial residual = 1, Final residual = 0, No Iterations 1
ExecutionTime = 2.67 s  ClockTime = 6 s

Time = 9.78

DICPCG:  Solving for T, Initial residual = 1, Final residual = 0, No Iterations 1
DICPCG:  Solving for T, Initial residual = 0, Final residual = 0, No Iterations 0
DICPCG:  Solving for T, Initial residual = 0, Final residual = 0, No Iterations 0
ExecutionTime = 2.68 s  ClockTime = 6 s

Time = 9.785

DICPCG:  Solving for T, Initial residual = 1, Final residual = 1.32453e-17, No Iterations 1
DICPCG:  Solving for T, Initial residual = 1, Final residual = 0, No Iterations 1
DICPCG:  Solving for T, Initial residual = 1, Final residual = 0, No Iterations 1
ExecutionTime = 2.68 s  ClockTime = 6 s

Time = 9.79

DICPCG:  Solving for T, Initial residual = 1, Final residual = 1.32453e-17, No Iterations 1
DICPCG:  Solving for T, Initial residual = 1, Final residual = 0, No Iterations 1
DICPCG:  Solving for T, Initial residual = 1, Final residual = 0, No Iterations 1
ExecutionTime = 2.68 s  ClockTime = 6 s

Time = 9.795

DICPCG:  Solving for T, Initial residual = 1, Final residual = 0, No Iterations 1
DICPCG:  Solving for T, Initial residual = 0, Final residual = 0, No Iterations 0
DICPCG:  Solving for T, Initial residual = 0, Final residual = 0, No Iterations 0
ExecutionTime = 2.68 s  ClockTime = 6 s

Time = 9.8

DICPCG:  Solving for T, Initial residual = 1, Final residual = 0, No Iterations 1
DICPCG:  Solving for T, Initial residual = 1, Final residual = 0, No Iterations 1
DICPCG:  Solving for T, Initial residual = 1, Final residual = 0, No Iterations 1
ExecutionTime = 2.68 s  ClockTime = 6 s

Time = 9.805

DICPCG:  Solving for T, Initial residual = 1, Final residual = 0, No Iterations 1
DICPCG:  Solving for T, Initial residual = 1, Final residual = 0, No Iterations 1
DICPCG:  Solving for T, Initial residual = 1, Final residual = 0, No Iterations 1
ExecutionTime = 2.68 s  ClockTime = 6 s

Time = 9.81

DICPCG:  Solving for T, Initial residual = 1, Final residual = 0, No Iterations 1
DICPCG:  Solving for T, Initial residual = 0, Final residual = 0, No Iterations 0
DICPCG:  Solving for T, Initial residual = 0, Final residual = 0, No Iterations 0
ExecutionTime = 2.68 s  ClockTime = 6 s

Time = 9.815

DICPCG:  Solving for T, Initial residual = 1, Final residual = 0, No Iterations 1
DICPCG:  Solving for T, Initial residual = 1, Final residual = 0, No Iterations 1
DICPCG:  Solving for T, Initial residual = 1, Final residual = 0, No Iterations 1
ExecutionTime = 2.68 s  ClockTime = 6 s

Time = 9.82

DICPCG:  Solving for T, Initial residual = 1, Final residual = 0, No Iterations 1
DICPCG:  Solving for T, Initial residual = 0, Final residual = 0, No Iterations 0
DICPCG:  Solving for T, Initial residual = 0, Final residual = 0, No Iterations 0
ExecutionTime = 2.69 s  ClockTime = 6 s

Time = 9.825

DICPCG:  Solving for T, Initial residual = 1, Final residual = 0, No Iterations 1
DICPCG:  Solving for T, Initial residual = 0, Final residual = 0, No Iterations 0
DICPCG:  Solving for T, Initial residual = 0, Final residual = 0, No Iterations 0
ExecutionTime = 2.69 s  ClockTime = 6 s

Time = 9.83

DICPCG:  Solving for T, Initial residual = 1, Final residual = 1.32453e-17, No Iterations 1
DICPCG:  Solving for T, Initial residual = 1, Final residual = 0, No Iterations 1
DICPCG:  Solving for T, Initial residual = 1, Final residual = 0, No Iterations 1
ExecutionTime = 2.7 s  ClockTime = 6 s

Time = 9.835

DICPCG:  Solving for T, Initial residual = 1, Final residual = 0, No Iterations 1
DICPCG:  Solving for T, Initial residual = 0, Final residual = 0, No Iterations 0
DICPCG:  Solving for T, Initial residual = 0, Final residual = 0, No Iterations 0
ExecutionTime = 2.7 s  ClockTime = 6 s

Time = 9.84

DICPCG:  Solving for T, Initial residual = 1, Final residual = 0, No Iterations 1
DICPCG:  Solving for T, Initial residual = 0, Final residual = 0, No Iterations 0
DICPCG:  Solving for T, Initial residual = 0, Final residual = 0, No Iterations 0
ExecutionTime = 2.7 s  ClockTime = 6 s

Time = 9.845

DICPCG:  Solving for T, Initial residual = 1, Final residual = 1.32453e-17, No Iterations 1
DICPCG:  Solving for T, Initial residual = 0, Final residual = 0, No Iterations 0
DICPCG:  Solving for T, Initial residual = 0, Final residual = 0, No Iterations 0
ExecutionTime = 2.7 s  ClockTime = 6 s

Time = 9.85

DICPCG:  Solving for T, Initial residual = 1, Final residual = 1.32453e-17, No Iterations 1
DICPCG:  Solving for T, Initial residual = 1, Final residual = 0, No Iterations 1
DICPCG:  Solving for T, Initial residual = 1, Final residual = 0, No Iterations 1
ExecutionTime = 2.7 s  ClockTime = 6 s

Time = 9.855

DICPCG:  Solving for T, Initial residual = 1, Final residual = 0, No Iterations 1
DICPCG:  Solving for T, Initial residual = 0, Final residual = 0, No Iterations 0
DICPCG:  Solving for T, Initial residual = 0, Final residual = 0, No Iterations 0
ExecutionTime = 2.7 s  ClockTime = 6 s

Time = 9.86

DICPCG:  Solving for T, Initial residual = 1, Final residual = 0, No Iterations 1
DICPCG:  Solving for T, Initial residual = 0, Final residual = 0, No Iterations 0
DICPCG:  Solving for T, Initial residual = 0, Final residual = 0, No Iterations 0
ExecutionTime = 2.7 s  ClockTime = 6 s

Time = 9.865

DICPCG:  Solving for T, Initial residual = 1, Final residual = 0, No Iterations 1
DICPCG:  Solving for T, Initial residual = 1, Final residual = 0, No Iterations 1
DICPCG:  Solving for T, Initial residual = 1, Final residual = 0, No Iterations 1
ExecutionTime = 2.7 s  ClockTime = 6 s

Time = 9.87

DICPCG:  Solving for T, Initial residual = 1, Final residual = 0, No Iterations 1
DICPCG:  Solving for T, Initial residual = 0, Final residual = 0, No Iterations 0
DICPCG:  Solving for T, Initial residual = 0, Final residual = 0, No Iterations 0
ExecutionTime = 2.7 s  ClockTime = 6 s

Time = 9.875

DICPCG:  Solving for T, Initial residual = 1, Final residual = 0, No Iterations 1
DICPCG:  Solving for T, Initial residual = 0, Final residual = 0, No Iterations 0
DICPCG:  Solving for T, Initial residual = 0, Final residual = 0, No Iterations 0
ExecutionTime = 2.7 s  ClockTime = 6 s

Time = 9.88

DICPCG:  Solving for T, Initial residual = 1, Final residual = 0, No Iterations 1
DICPCG:  Solving for T, Initial residual = 1, Final residual = 0, No Iterations 1
DICPCG:  Solving for T, Initial residual = 1, Final residual = 0, No Iterations 1
ExecutionTime = 2.71 s  ClockTime = 6 s

Time = 9.885

DICPCG:  Solving for T, Initial residual = 1, Final residual = 1.32453e-17, No Iterations 1
DICPCG:  Solving for T, Initial residual = 0, Final residual = 0, No Iterations 0
DICPCG:  Solving for T, Initial residual = 0, Final residual = 0, No Iterations 0
ExecutionTime = 2.71 s  ClockTime = 6 s

Time = 9.89

DICPCG:  Solving for T, Initial residual = 1, Final residual = 1.32453e-17, No Iterations 1
DICPCG:  Solving for T, Initial residual = 1, Final residual = 0, No Iterations 1
DICPCG:  Solving for T, Initial residual = 1, Final residual = 0, No Iterations 1
ExecutionTime = 2.71 s  ClockTime = 6 s

Time = 9.895

DICPCG:  Solving for T, Initial residual = 1, Final residual = 0, No Iterations 1
DICPCG:  Solving for T, Initial residual = 1, Final residual = 0, No Iterations 1
DICPCG:  Solving for T, Initial residual = 1, Final residual = 0, No Iterations 1
ExecutionTime = 2.71 s  ClockTime = 6 s

Time = 9.9

DICPCG:  Solving for T, Initial residual = 1, Final residual = 0, No Iterations 1
DICPCG:  Solving for T, Initial residual = 0, Final residual = 0, No Iterations 0
DICPCG:  Solving for T, Initial residual = 0, Final residual = 0, No Iterations 0
ExecutionTime = 2.71 s  ClockTime = 6 s

Time = 9.905

DICPCG:  Solving for T, Initial residual = 1, Final residual = 1.32453e-17, No Iterations 1
DICPCG:  Solving for T, Initial residual = 0, Final residual = 0, No Iterations 0
DICPCG:  Solving for T, Initial residual = 0, Final residual = 0, No Iterations 0
ExecutionTime = 2.72 s  ClockTime = 6 s

Time = 9.91

DICPCG:  Solving for T, Initial residual = 1, Final residual = 0, No Iterations 1
DICPCG:  Solving for T, Initial residual = 1, Final residual = 0, No Iterations 1
DICPCG:  Solving for T, Initial residual = 1, Final residual = 0, No Iterations 1
ExecutionTime = 2.72 s  ClockTime = 6 s

Time = 9.915

DICPCG:  Solving for T, Initial residual = 1, Final residual = 0, No Iterations 1
DICPCG:  Solving for T, Initial residual = 0, Final residual = 0, No Iterations 0
DICPCG:  Solving for T, Initial residual = 0, Final residual = 0, No Iterations 0
ExecutionTime = 2.72 s  ClockTime = 6 s

Time = 9.92

DICPCG:  Solving for T, Initial residual = 1, Final residual = 0, No Iterations 1
DICPCG:  Solving for T, Initial residual = 0, Final residual = 0, No Iterations 0
DICPCG:  Solving for T, Initial residual = 0, Final residual = 0, No Iterations 0
ExecutionTime = 2.72 s  ClockTime = 7 s

Time = 9.925

DICPCG:  Solving for T, Initial residual = 1, Final residual = 0, No Iterations 1
DICPCG:  Solving for T, Initial residual = 0, Final residual = 0, No Iterations 0
DICPCG:  Solving for T, Initial residual = 0, Final residual = 0, No Iterations 0
ExecutionTime = 2.72 s  ClockTime = 7 s

Time = 9.93

DICPCG:  Solving for T, Initial residual = 1, Final residual = 0, No Iterations 1
DICPCG:  Solving for T, Initial residual = 0, Final residual = 0, No Iterations 0
DICPCG:  Solving for T, Initial residual = 0, Final residual = 0, No Iterations 0
ExecutionTime = 2.72 s  ClockTime = 7 s

Time = 9.935

DICPCG:  Solving for T, Initial residual = 1, Final residual = 1.32453e-17, No Iterations 1
DICPCG:  Solving for T, Initial residual = 1, Final residual = 0, No Iterations 1
DICPCG:  Solving for T, Initial residual = 1, Final residual = 0, No Iterations 1
ExecutionTime = 2.72 s  ClockTime = 7 s

Time = 9.94

DICPCG:  Solving for T, Initial residual = 1, Final residual = 1.32453e-17, No Iterations 1
DICPCG:  Solving for T, Initial residual = 0, Final residual = 0, No Iterations 0
DICPCG:  Solving for T, Initial residual = 0, Final residual = 0, No Iterations 0
ExecutionTime = 2.72 s  ClockTime = 7 s

Time = 9.945

DICPCG:  Solving for T, Initial residual = 1, Final residual = 0, No Iterations 1
DICPCG:  Solving for T, Initial residual = 0, Final residual = 0, No Iterations 0
DICPCG:  Solving for T, Initial residual = 0, Final residual = 0, No Iterations 0
ExecutionTime = 2.72 s  ClockTime = 7 s

Time = 9.95

DICPCG:  Solving for T, Initial residual = 1, Final residual = 0, No Iterations 1
DICPCG:  Solving for T, Initial residual = 1, Final residual = 0, No Iterations 1
DICPCG:  Solving for T, Initial residual = 1, Final residual = 0, No Iterations 1
ExecutionTime = 2.72 s  ClockTime = 7 s

Time = 9.955

DICPCG:  Solving for T, Initial residual = 1, Final residual = 0, No Iterations 1
DICPCG:  Solving for T, Initial residual = 1, Final residual = 0, No Iterations 1
DICPCG:  Solving for T, Initial residual = 1, Final residual = 0, No Iterations 1
ExecutionTime = 2.73 s  ClockTime = 7 s

Time = 9.96

DICPCG:  Solving for T, Initial residual = 1, Final residual = 0, No Iterations 1
DICPCG:  Solving for T, Initial residual = 0, Final residual = 0, No Iterations 0
DICPCG:  Solving for T, Initial residual = 0, Final residual = 0, No Iterations 0
ExecutionTime = 2.73 s  ClockTime = 7 s

Time = 9.965

DICPCG:  Solving for T, Initial residual = 1, Final residual = 0, No Iterations 1
DICPCG:  Solving for T, Initial residual = 1, Final residual = 0, No Iterations 1
DICPCG:  Solving for T, Initial residual = 1, Final residual = 0, No Iterations 1
ExecutionTime = 2.73 s  ClockTime = 7 s

Time = 9.97

DICPCG:  Solving for T, Initial residual = 1, Final residual = 0, No Iterations 1
DICPCG:  Solving for T, Initial residual = 1, Final residual = 0, No Iterations 1
DICPCG:  Solving for T, Initial residual = 1, Final residual = 0, No Iterations 1
ExecutionTime = 2.73 s  ClockTime = 7 s

Time = 9.975

DICPCG:  Solving for T, Initial residual = 1, Final residual = 0, No Iterations 1
DICPCG:  Solving for T, Initial residual = 0, Final residual = 0, No Iterations 0
DICPCG:  Solving for T, Initial residual = 0, Final residual = 0, No Iterations 0
ExecutionTime = 2.73 s  ClockTime = 7 s

Time = 9.98

DICPCG:  Solving for T, Initial residual = 1, Final residual = 1.32453e-17, No Iterations 1
DICPCG:  Solving for T, Initial residual = 0, Final residual = 0, No Iterations 0
DICPCG:  Solving for T, Initial residual = 0, Final residual = 0, No Iterations 0
ExecutionTime = 2.74 s  ClockTime = 7 s

Time = 9.985

DICPCG:  Solving for T, Initial residual = 1, Final residual = 1.9227e-16, No Iterations 1
DICPCG:  Solving for T, Initial residual = 1, Final residual = 0, No Iterations 1
DICPCG:  Solving for T, Initial residual = 1, Final residual = 0, No Iterations 1
ExecutionTime = 2.74 s  ClockTime = 7 s

Time = 9.99

DICPCG:  Solving for T, Initial residual = 1, Final residual = 0, No Iterations 1
DICPCG:  Solving for T, Initial residual = 0, Final residual = 0, No Iterations 0
DICPCG:  Solving for T, Initial residual = 0, Final residual = 0, No Iterations 0
ExecutionTime = 2.74 s  ClockTime = 7 s

Time = 9.995

DICPCG:  Solving for T, Initial residual = 1, Final residual = 0, No Iterations 1
DICPCG:  Solving for T, Initial residual = 1, Final residual = 0, No Iterations 1
DICPCG:  Solving for T, Initial residual = 1, Final residual = 0, No Iterations 1
ExecutionTime = 2.74 s  ClockTime = 7 s

Time = 10

DICPCG:  Solving for T, Initial residual = 1, Final residual = 0, No Iterations 1
DICPCG:  Solving for T, Initial residual = 0, Final residual = 0, No Iterations 0
DICPCG:  Solving for T, Initial residual = 0, Final residual = 0, No Iterations 0
ExecutionTime = 2.74 s  ClockTime = 7 s

End

