/*---------------------------------------------------------------------------*\
| =========                 |                                                 |
| \\      /  F ield         | OpenFOAM: The Open Source CFD Toolbox           |
|  \\    /   O peration     | Version:  2.3.0                                 |
|   \\  /    A nd           | Web:      www.OpenFOAM.org                      |
|    \\/     M anipulation  |                                                 |
\*---------------------------------------------------------------------------*/
Build  : 2.3.0-f5222ca19ce6
Exec   : laplacianFoamF
Date   : Dec 01 2014
Time   : 22:19:41
Host   : "debian-toshiba"
PID    : 22934
Case   : /home/jenek/laplacianFoamF/laplacianFoamF/case5cells
nProcs : 1
sigFpe : Enabling floating point exception trapping (FOAM_SIGFPE).
fileModificationChecking : Monitoring run-time modified files using timeStampMaster
allowSystemOperations : Disallowing user-supplied system call operations

// * * * * * * * * * * * * * * * * * * * * * * * * * * * * * * * * * * * * * //
Create time

Create mesh for time = 0

Selecting dynamicFvMesh dynamicRefineFvMesh

SIMPLE: convergence criteria
field T	 tolerance 0.0001

Reading field T

Reading transportProperties

Reading diffusivity DT


Starting time loop

Time = 0.005

DICPCG:  Solving for T, Initial residual = 1, Final residual = 0, No Iterations 1
DICPCG:  Solving for T, Initial residual = 0, Final residual = 0, No Iterations 0
DICPCG:  Solving for T, Initial residual = 0, Final residual = 0, No Iterations 0
nonDiag.size()=1

U.size()=1

F.size()=1

F = normalisedF;

Selected 1 cells for refinement out of 1.
Refined from 1 to 8 cells.
--> FOAM Warning :
From function dynamicRefineFvMesh::refine(const labelList&)
in file dynamicRefineFvMesh/dynamicRefineFvMesh.C at line 315
Cannot find surfaceScalarField -((DT*magSf)*snGradCorr(T)) in user-provided flux mapping table
0
(
)
The flux mapping table is used to recreate the flux on newly created faces.
Either add the entry if it is a flux or use (-((DT*magSf)*snGradCorr(T)) none) to suppress this warning.
Selected 0 split points out of a possible 1.
mesh updated
Execution time for mesh.update() = 0.01 s
Time = 0.01

DICPCG:  Solving for T, Initial residual = 1, Final residual = 1.81266e-16, No Iterations 1
DICPCG:  Solving for T, Initial residual = 0, Final residual = 0, No Iterations 0
DICPCG:  Solving for T, Initial residual = 0, Final residual = 0, No Iterations 0
nonDiag.size()=8

U.size()=8

F.size()=8

F = normalisedF;

Selected 8 cells for refinement out of 8.
Refined from 8 to 64 cells.
--> FOAM Warning :
From function dynamicRefineFvMesh::refine(const labelList&)
in file dynamicRefineFvMesh/dynamicRefineFvMesh.C at line 315
Cannot find surfaceScalarField -((DT*magSf)*snGradCorr(T)) in user-provided flux mapping table
0
(
)
The flux mapping table is used to recreate the flux on newly created faces.
Either add the entry if it is a flux or use (-((DT*magSf)*snGradCorr(T)) none) to suppress this warning.
Selected 0 split points out of a possible 8.
mesh updated
Execution time for mesh.update() = -4.1674e-19 s
Time = 0.015

DICPCG:  Solving for T, Initial residual = 0.993924, Final residual = 1.25565e-12, No Iterations 1
DICPCG:  Solving for T, Initial residual = 6.41136e-13, Final residual = 6.41136e-13, No Iterations 0
DICPCG:  Solving for T, Initial residual = 6.41136e-13, Final residual = 6.41136e-13, No Iterations 0
nonDiag.size()=64

U.size()=64

F.size()=64

F = normalisedF;

Selected 0 cells for refinement out of 64.
Selected 0 split points out of a possible 8.
mesh updated
Time = 0.02

DICPCG:  Solving for T, Initial residual = 0.338347, Final residual = 4.27412e-13, No Iterations 1
DICPCG:  Solving for T, Initial residual = 3.20547e-13, Final residual = 3.20547e-13, No Iterations 0
DICPCG:  Solving for T, Initial residual = 3.20547e-13, Final residual = 3.20547e-13, No Iterations 0
nonDiag.size()=64

U.size()=64

F.size()=64

F = normalisedF;

Selected 0 cells for refinement out of 64.
Selected 0 split points out of a possible 8.
mesh updated
Time = 0.025

DICPCG:  Solving for T, Initial residual = 0.203009, Final residual = 2.56457e-13, No Iterations 1
DICPCG:  Solving for T, Initial residual = 2.13697e-13, Final residual = 2.13697e-13, No Iterations 0
DICPCG:  Solving for T, Initial residual = 2.13697e-13, Final residual = 2.13697e-13, No Iterations 0
nonDiag.size()=64

U.size()=64

F.size()=64

F = normalisedF;

Selected 0 cells for refinement out of 64.
Selected 0 split points out of a possible 8.
mesh updated
Time = 0.03

DICPCG:  Solving for T, Initial residual = 0.145007, Final residual = 1.83167e-13, No Iterations 1
DICPCG:  Solving for T, Initial residual = 1.60349e-13, Final residual = 1.60349e-13, No Iterations 0
DICPCG:  Solving for T, Initial residual = 1.60349e-13, Final residual = 1.60349e-13, No Iterations 0
nonDiag.size()=64

U.size()=64

F.size()=64

F = normalisedF;

Selected 0 cells for refinement out of 64.
Selected 0 split points out of a possible 8.
mesh updated
Time = 0.035

DICPCG:  Solving for T, Initial residual = 0.112784, Final residual = 1.4247e-13, No Iterations 1
DICPCG:  Solving for T, Initial residual = 1.2826e-13, Final residual = 1.2826e-13, No Iterations 0
DICPCG:  Solving for T, Initial residual = 1.2826e-13, Final residual = 1.2826e-13, No Iterations 0
nonDiag.size()=64

U.size()=64

F.size()=64

F = normalisedF;

Selected 0 cells for refinement out of 64.
Selected 0 split points out of a possible 8.
mesh updated
Time = 0.04

DICPCG:  Solving for T, Initial residual = 0.0922777, Final residual = 1.16567e-13, No Iterations 1
DICPCG:  Solving for T, Initial residual = 1.0689e-13, Final residual = 1.0689e-13, No Iterations 0
DICPCG:  Solving for T, Initial residual = 1.0689e-13, Final residual = 1.0689e-13, No Iterations 0
nonDiag.size()=64

U.size()=64

F.size()=64

F = normalisedF;

Selected 0 cells for refinement out of 64.
Selected 0 split points out of a possible 8.
mesh updated
Time = 0.045

DICPCG:  Solving for T, Initial residual = 0.0780814, Final residual = 9.86314e-14, No Iterations 1
DICPCG:  Solving for T, Initial residual = 9.16507e-14, Final residual = 9.16507e-14, No Iterations 0
DICPCG:  Solving for T, Initial residual = 9.16507e-14, Final residual = 9.16507e-14, No Iterations 0
nonDiag.size()=64

U.size()=64

F.size()=64

F = normalisedF;

Selected 0 cells for refinement out of 64.
Selected 0 split points out of a possible 8.
mesh updated
Time = 0.05

DICPCG:  Solving for T, Initial residual = 0.0676707, Final residual = 8.54844e-14, No Iterations 1
DICPCG:  Solving for T, Initial residual = 8.0218e-14, Final residual = 8.0218e-14, No Iterations 0
DICPCG:  Solving for T, Initial residual = 8.0218e-14, Final residual = 8.0218e-14, No Iterations 0
nonDiag.size()=64

U.size()=64

F.size()=64

F = normalisedF;

Selected 0 cells for refinement out of 64.
Selected 0 split points out of a possible 8.
mesh updated
Time = 0.055

DICPCG:  Solving for T, Initial residual = 0.0597097, Final residual = 7.54294e-14, No Iterations 1
DICPCG:  Solving for T, Initial residual = 7.13256e-14, Final residual = 7.13256e-14, No Iterations 0
DICPCG:  Solving for T, Initial residual = 7.13256e-14, Final residual = 7.13256e-14, No Iterations 0
nonDiag.size()=64

U.size()=64

F.size()=64

F = normalisedF;

Selected 0 cells for refinement out of 64.
Selected 0 split points out of a possible 8.
mesh updated
Time = 0.06

DICPCG:  Solving for T, Initial residual = 0.0534246, Final residual = 6.74855e-14, No Iterations 1
DICPCG:  Solving for T, Initial residual = 6.41859e-14, Final residual = 6.41859e-14, No Iterations 0
DICPCG:  Solving for T, Initial residual = 6.41859e-14, Final residual = 6.41859e-14, No Iterations 0
nonDiag.size()=64

U.size()=64

F.size()=64

F = normalisedF;

Selected 0 cells for refinement out of 64.
Selected 0 split points out of a possible 8.
mesh updated
Time = 0.065

DICPCG:  Solving for T, Initial residual = 0.0483367, Final residual = 6.10585e-14, No Iterations 1
DICPCG:  Solving for T, Initial residual = 5.831e-14, Final residual = 5.831e-14, No Iterations 0
DICPCG:  Solving for T, Initial residual = 5.831e-14, Final residual = 5.831e-14, No Iterations 0
nonDiag.size()=64

U.size()=64

F.size()=64

F = normalisedF;

Selected 0 cells for refinement out of 64.
Selected 0 split points out of a possible 8.
mesh updated
Time = 0.07

DICPCG:  Solving for T, Initial residual = 0.0441337, Final residual = 5.5751e-14, No Iterations 1
DICPCG:  Solving for T, Initial residual = 5.34814e-14, Final residual = 5.34814e-14, No Iterations 0
DICPCG:  Solving for T, Initial residual = 5.34814e-14, Final residual = 5.34814e-14, No Iterations 0
nonDiag.size()=64

U.size()=64

F.size()=64

F = normalisedF;

Selected 0 cells for refinement out of 64.
Selected 0 split points out of a possible 8.
mesh updated
Time = 0.075

DICPCG:  Solving for T, Initial residual = 0.0406031, Final residual = 5.12887e-14, No Iterations 1
DICPCG:  Solving for T, Initial residual = 4.93847e-14, Final residual = 4.93847e-14, No Iterations 0
DICPCG:  Solving for T, Initial residual = 4.93847e-14, Final residual = 4.93847e-14, No Iterations 0
nonDiag.size()=64

U.size()=64

F.size()=64

F = normalisedF;

Selected 0 cells for refinement out of 64.
Selected 0 split points out of a possible 8.
mesh updated
Time = 0.08

DICPCG:  Solving for T, Initial residual = 0.0375956, Final residual = 4.74946e-14, No Iterations 1
DICPCG:  Solving for T, Initial residual = 4.58474e-14, Final residual = 4.58474e-14, No Iterations 0
DICPCG:  Solving for T, Initial residual = 4.58474e-14, Final residual = 4.58474e-14, No Iterations 0
nonDiag.size()=64

U.size()=64

F.size()=64

F = normalisedF;

Selected 0 cells for refinement out of 64.
Selected 0 split points out of a possible 8.
mesh updated
Time = 0.085

DICPCG:  Solving for T, Initial residual = 0.0350029, Final residual = 4.42134e-14, No Iterations 1
DICPCG:  Solving for T, Initial residual = 4.2786e-14, Final residual = 4.2786e-14, No Iterations 0
DICPCG:  Solving for T, Initial residual = 4.2786e-14, Final residual = 4.2786e-14, No Iterations 0
nonDiag.size()=64

U.size()=64

F.size()=64

F = normalisedF;

Selected 0 cells for refinement out of 64.
Selected 0 split points out of a possible 8.
mesh updated
Time = 0.09

DICPCG:  Solving for T, Initial residual = 0.0327447, Final residual = 4.13625e-14, No Iterations 1
DICPCG:  Solving for T, Initial residual = 4.01634e-14, Final residual = 4.01634e-14, No Iterations 0
DICPCG:  Solving for T, Initial residual = 4.01634e-14, Final residual = 4.01634e-14, No Iterations 0
nonDiag.size()=64

U.size()=64

F.size()=64

F = normalisedF;

Selected 0 cells for refinement out of 64.
Selected 0 split points out of a possible 8.
mesh updated
Time = 0.095

DICPCG:  Solving for T, Initial residual = 0.0307603, Final residual = 3.88585e-14, No Iterations 1
DICPCG:  Solving for T, Initial residual = 3.77769e-14, Final residual = 3.77769e-14, No Iterations 0
DICPCG:  Solving for T, Initial residual = 3.77769e-14, Final residual = 3.77769e-14, No Iterations 0
nonDiag.size()=64

U.size()=64

F.size()=64

F = normalisedF;

Selected 0 cells for refinement out of 64.
Selected 0 split points out of a possible 8.
mesh updated
Time = 0.1

DICPCG:  Solving for T, Initial residual = 0.0290027, Final residual = 3.66407e-14, No Iterations 1
DICPCG:  Solving for T, Initial residual = 3.5732e-14, Final residual = 3.5732e-14, No Iterations 0
DICPCG:  Solving for T, Initial residual = 3.5732e-14, Final residual = 3.5732e-14, No Iterations 0
nonDiag.size()=64

U.size()=64

F.size()=64

F = normalisedF;

Selected 0 cells for refinement out of 64.
Selected 0 split points out of a possible 8.
mesh updated
Time = 0.105

DICPCG:  Solving for T, Initial residual = 0.0274351, Final residual = 3.46592e-14, No Iterations 1
DICPCG:  Solving for T, Initial residual = 3.37699e-14, Final residual = 3.37699e-14, No Iterations 0
DICPCG:  Solving for T, Initial residual = 3.37699e-14, Final residual = 3.37699e-14, No Iterations 0
nonDiag.size()=64

U.size()=64

F.size()=64

F = normalisedF;

Selected 0 cells for refinement out of 64.
Selected 0 split points out of a possible 8.
mesh updated
Time = 0.11

DICPCG:  Solving for T, Initial residual = 0.0260282, Final residual = 3.28783e-14, No Iterations 1
DICPCG:  Solving for T, Initial residual = 3.212e-14, Final residual = 3.212e-14, No Iterations 0
DICPCG:  Solving for T, Initial residual = 3.212e-14, Final residual = 3.212e-14, No Iterations 0
nonDiag.size()=64

U.size()=64

F.size()=64

F = normalisedF;

Selected 0 cells for refinement out of 64.
Selected 0 split points out of a possible 8.
mesh updated
Time = 0.115

DICPCG:  Solving for T, Initial residual = 0.0247586, Final residual = 3.12741e-14, No Iterations 1
DICPCG:  Solving for T, Initial residual = 3.06114e-14, Final residual = 3.06114e-14, No Iterations 0
DICPCG:  Solving for T, Initial residual = 3.06114e-14, Final residual = 3.06114e-14, No Iterations 0
nonDiag.size()=64

U.size()=64

F.size()=64

F = normalisedF;

Selected 0 cells for refinement out of 64.
Selected 0 split points out of a possible 8.
mesh updated
Time = 0.12

DICPCG:  Solving for T, Initial residual = 0.0236071, Final residual = 2.98212e-14, No Iterations 1
DICPCG:  Solving for T, Initial residual = 2.91857e-14, Final residual = 2.91857e-14, No Iterations 0
DICPCG:  Solving for T, Initial residual = 2.91857e-14, Final residual = 2.91857e-14, No Iterations 0
nonDiag.size()=64

U.size()=64

F.size()=64

F = normalisedF;

Selected 0 cells for refinement out of 64.
Selected 0 split points out of a possible 8.
mesh updated
Time = 0.125

DICPCG:  Solving for T, Initial residual = 0.022558, Final residual = 2.8496e-14, No Iterations 1
DICPCG:  Solving for T, Initial residual = 2.79479e-14, Final residual = 2.79479e-14, No Iterations 0
DICPCG:  Solving for T, Initial residual = 2.79479e-14, Final residual = 2.79479e-14, No Iterations 0
nonDiag.size()=64

U.size()=64

F.size()=64

F = normalisedF;

Selected 0 cells for refinement out of 64.
Selected 0 split points out of a possible 8.
mesh updated
Time = 0.13

DICPCG:  Solving for T, Initial residual = 0.0215982, Final residual = 2.72827e-14, No Iterations 1
DICPCG:  Solving for T, Initial residual = 2.67647e-14, Final residual = 2.67647e-14, No Iterations 0
DICPCG:  Solving for T, Initial residual = 2.67647e-14, Final residual = 2.67647e-14, No Iterations 0
nonDiag.size()=64

U.size()=64

F.size()=64

F = normalisedF;

Selected 0 cells for refinement out of 64.
Selected 0 split points out of a possible 8.
mesh updated
Time = 0.135

DICPCG:  Solving for T, Initial residual = 0.0207167, Final residual = 2.6171e-14, No Iterations 1
DICPCG:  Solving for T, Initial residual = 2.56888e-14, Final residual = 2.56888e-14, No Iterations 0
DICPCG:  Solving for T, Initial residual = 2.56888e-14, Final residual = 2.56888e-14, No Iterations 0
nonDiag.size()=64

U.size()=64

F.size()=64

F = normalisedF;

Selected 0 cells for refinement out of 64.
Selected 0 split points out of a possible 8.
mesh updated
Time = 0.14

DICPCG:  Solving for T, Initial residual = 0.0199043, Final residual = 2.51433e-14, No Iterations 1
DICPCG:  Solving for T, Initial residual = 2.47006e-14, Final residual = 2.47006e-14, No Iterations 0
DICPCG:  Solving for T, Initial residual = 2.47006e-14, Final residual = 2.47006e-14, No Iterations 0
nonDiag.size()=64

U.size()=64

F.size()=64

F = normalisedF;

Selected 0 cells for refinement out of 64.
Selected 0 split points out of a possible 8.
mesh updated
Time = 0.145

DICPCG:  Solving for T, Initial residual = 0.0191533, Final residual = 2.41973e-14, No Iterations 1
DICPCG:  Solving for T, Initial residual = 2.37749e-14, Final residual = 2.37749e-14, No Iterations 0
DICPCG:  Solving for T, Initial residual = 2.37749e-14, Final residual = 2.37749e-14, No Iterations 0
nonDiag.size()=64

U.size()=64

F.size()=64

F = normalisedF;

Selected 0 cells for refinement out of 64.
Selected 0 split points out of a possible 8.
mesh updated
Time = 0.15

DICPCG:  Solving for T, Initial residual = 0.0184568, Final residual = 2.33164e-14, No Iterations 1
DICPCG:  Solving for T, Initial residual = 2.29276e-14, Final residual = 2.29276e-14, No Iterations 0
DICPCG:  Solving for T, Initial residual = 2.29276e-14, Final residual = 2.29276e-14, No Iterations 0
nonDiag.size()=64

U.size()=64

F.size()=64

F = normalisedF;

Selected 0 cells for refinement out of 64.
Selected 0 split points out of a possible 8.
mesh updated
Time = 0.155

DICPCG:  Solving for T, Initial residual = 0.0178093, Final residual = 2.24965e-14, No Iterations 1
DICPCG:  Solving for T, Initial residual = 2.21252e-14, Final residual = 2.21252e-14, No Iterations 0
DICPCG:  Solving for T, Initial residual = 2.21252e-14, Final residual = 2.21252e-14, No Iterations 0
nonDiag.size()=64

U.size()=64

F.size()=64

F = normalisedF;

Selected 0 cells for refinement out of 64.
Selected 0 split points out of a possible 8.
mesh updated
Time = 0.16

DICPCG:  Solving for T, Initial residual = 0.0172056, Final residual = 2.17354e-14, No Iterations 1
DICPCG:  Solving for T, Initial residual = 2.14137e-14, Final residual = 2.14137e-14, No Iterations 0
DICPCG:  Solving for T, Initial residual = 2.14137e-14, Final residual = 2.14137e-14, No Iterations 0
nonDiag.size()=64

U.size()=64

F.size()=64

F = normalisedF;

Selected 0 cells for refinement out of 64.
Selected 0 split points out of a possible 8.
mesh updated
Time = 0.165

DICPCG:  Solving for T, Initial residual = 0.0166416, Final residual = 2.10223e-14, No Iterations 1
DICPCG:  Solving for T, Initial residual = 2.07446e-14, Final residual = 2.07446e-14, No Iterations 0
DICPCG:  Solving for T, Initial residual = 2.07446e-14, Final residual = 2.07446e-14, No Iterations 0
nonDiag.size()=64

U.size()=64

F.size()=64

F = normalisedF;

Selected 0 cells for refinement out of 64.
Selected 0 split points out of a possible 8.
mesh updated
Time = 0.17

DICPCG:  Solving for T, Initial residual = 0.0161133, Final residual = 2.03551e-14, No Iterations 1
DICPCG:  Solving for T, Initial residual = 2.01544e-14, Final residual = 2.01544e-14, No Iterations 0
DICPCG:  Solving for T, Initial residual = 2.01544e-14, Final residual = 2.01544e-14, No Iterations 0
nonDiag.size()=64

U.size()=64

F.size()=64

F = normalisedF;

Selected 0 cells for refinement out of 64.
Selected 0 split points out of a possible 8.
mesh updated
Time = 0.175

DICPCG:  Solving for T, Initial residual = 0.0156176, Final residual = 1.97286e-14, No Iterations 1
DICPCG:  Solving for T, Initial residual = 1.95442e-14, Final residual = 1.95442e-14, No Iterations 0
DICPCG:  Solving for T, Initial residual = 1.95442e-14, Final residual = 1.95442e-14, No Iterations 0
nonDiag.size()=64

U.size()=64

F.size()=64

F = normalisedF;

Selected 0 cells for refinement out of 64.
Selected 0 split points out of a possible 8.
mesh updated
Time = 0.18

DICPCG:  Solving for T, Initial residual = 0.0151514, Final residual = 1.91414e-14, No Iterations 1
DICPCG:  Solving for T, Initial residual = 1.89159e-14, Final residual = 1.89159e-14, No Iterations 0
DICPCG:  Solving for T, Initial residual = 1.89159e-14, Final residual = 1.89159e-14, No Iterations 0
nonDiag.size()=64

U.size()=64

F.size()=64

F = normalisedF;

Selected 0 cells for refinement out of 64.
Selected 0 split points out of a possible 8.
mesh updated
Time = 0.185

DICPCG:  Solving for T, Initial residual = 0.0147123, Final residual = 1.85857e-14, No Iterations 1
DICPCG:  Solving for T, Initial residual = 1.83273e-14, Final residual = 1.83273e-14, No Iterations 0
DICPCG:  Solving for T, Initial residual = 1.83273e-14, Final residual = 1.83273e-14, No Iterations 0
nonDiag.size()=64

U.size()=64

F.size()=64

F = normalisedF;

Selected 0 cells for refinement out of 64.
Selected 0 split points out of a possible 8.
mesh updated
Time = 0.19

DICPCG:  Solving for T, Initial residual = 0.0142979, Final residual = 1.80639e-14, No Iterations 1
DICPCG:  Solving for T, Initial residual = 1.78671e-14, Final residual = 1.78671e-14, No Iterations 0
DICPCG:  Solving for T, Initial residual = 1.78671e-14, Final residual = 1.78671e-14, No Iterations 0
nonDiag.size()=64

U.size()=64

F.size()=64

F = normalisedF;

Selected 0 cells for refinement out of 64.
Selected 0 split points out of a possible 8.
mesh updated
Time = 0.195

DICPCG:  Solving for T, Initial residual = 0.0139062, Final residual = 1.75692e-14, No Iterations 1
DICPCG:  Solving for T, Initial residual = 1.73778e-14, Final residual = 1.73778e-14, No Iterations 0
DICPCG:  Solving for T, Initial residual = 1.73778e-14, Final residual = 1.73778e-14, No Iterations 0
nonDiag.size()=64

U.size()=64

F.size()=64

F = normalisedF;

Selected 0 cells for refinement out of 64.
Selected 0 split points out of a possible 8.
mesh updated
Time = 0.2

DICPCG:  Solving for T, Initial residual = 0.0135354, Final residual = 1.70986e-14, No Iterations 1
DICPCG:  Solving for T, Initial residual = 1.6964e-14, Final residual = 1.6964e-14, No Iterations 0
DICPCG:  Solving for T, Initial residual = 1.6964e-14, Final residual = 1.6964e-14, No Iterations 0
nonDiag.size()=64

U.size()=64

F.size()=64

F = normalisedF;

Selected 0 cells for refinement out of 64.
Selected 0 split points out of a possible 8.
mesh updated
Time = 0.205

DICPCG:  Solving for T, Initial residual = 0.0131839, Final residual = 1.66559e-14, No Iterations 1
DICPCG:  Solving for T, Initial residual = 1.65495e-14, Final residual = 1.65495e-14, No Iterations 0
DICPCG:  Solving for T, Initial residual = 1.65495e-14, Final residual = 1.65495e-14, No Iterations 0
nonDiag.size()=64

U.size()=64

F.size()=64

F = normalisedF;

Selected 0 cells for refinement out of 64.
Selected 0 split points out of a possible 8.
mesh updated
Time = 0.21

DICPCG:  Solving for T, Initial residual = 0.0128502, Final residual = 1.6234e-14, No Iterations 1
DICPCG:  Solving for T, Initial residual = 1.60804e-14, Final residual = 1.60804e-14, No Iterations 0
DICPCG:  Solving for T, Initial residual = 1.60804e-14, Final residual = 1.60804e-14, No Iterations 0
nonDiag.size()=64

U.size()=64

F.size()=64

F = normalisedF;

Selected 0 cells for refinement out of 64.
Selected 0 split points out of a possible 8.
mesh updated
Time = 0.215

DICPCG:  Solving for T, Initial residual = 0.0125329, Final residual = 1.58334e-14, No Iterations 1
DICPCG:  Solving for T, Initial residual = 1.56928e-14, Final residual = 1.56928e-14, No Iterations 0
DICPCG:  Solving for T, Initial residual = 1.56928e-14, Final residual = 1.56928e-14, No Iterations 0
nonDiag.size()=64

U.size()=64

F.size()=64

F = normalisedF;

Selected 0 cells for refinement out of 64.
Selected 0 split points out of a possible 8.
mesh updated
Time = 0.22

DICPCG:  Solving for T, Initial residual = 0.012231, Final residual = 1.54512e-14, No Iterations 1
DICPCG:  Solving for T, Initial residual = 1.53398e-14, Final residual = 1.53398e-14, No Iterations 0
DICPCG:  Solving for T, Initial residual = 1.53398e-14, Final residual = 1.53398e-14, No Iterations 0
nonDiag.size()=64

U.size()=64

F.size()=64

F = normalisedF;

Selected 0 cells for refinement out of 64.
Selected 0 split points out of a possible 8.
mesh updated
Time = 0.225

DICPCG:  Solving for T, Initial residual = 0.0119432, Final residual = 1.50883e-14, No Iterations 1
DICPCG:  Solving for T, Initial residual = 1.49594e-14, Final residual = 1.49594e-14, No Iterations 0
DICPCG:  Solving for T, Initial residual = 1.49594e-14, Final residual = 1.49594e-14, No Iterations 0
nonDiag.size()=64

U.size()=64

F.size()=64

F = normalisedF;

Selected 0 cells for refinement out of 64.
Selected 0 split points out of a possible 8.
mesh updated
Time = 0.23

DICPCG:  Solving for T, Initial residual = 0.0116687, Final residual = 1.47403e-14, No Iterations 1
DICPCG:  Solving for T, Initial residual = 1.45884e-14, Final residual = 1.45884e-14, No Iterations 0
DICPCG:  Solving for T, Initial residual = 1.45884e-14, Final residual = 1.45884e-14, No Iterations 0
nonDiag.size()=64

U.size()=64

F.size()=64

F = normalisedF;

Selected 0 cells for refinement out of 64.
Selected 0 split points out of a possible 8.
mesh updated
Time = 0.235

DICPCG:  Solving for T, Initial residual = 0.0114065, Final residual = 1.44108e-14, No Iterations 1
DICPCG:  Solving for T, Initial residual = 1.42755e-14, Final residual = 1.42755e-14, No Iterations 0
DICPCG:  Solving for T, Initial residual = 1.42755e-14, Final residual = 1.42755e-14, No Iterations 0
nonDiag.size()=64

U.size()=64

F.size()=64

F = normalisedF;

Selected 0 cells for refinement out of 64.
Selected 0 split points out of a possible 8.
mesh updated
Time = 0.24

DICPCG:  Solving for T, Initial residual = 0.0111559, Final residual = 1.40944e-14, No Iterations 1
DICPCG:  Solving for T, Initial residual = 1.39794e-14, Final residual = 1.39794e-14, No Iterations 0
DICPCG:  Solving for T, Initial residual = 1.39794e-14, Final residual = 1.39794e-14, No Iterations 0
nonDiag.size()=64

U.size()=64

F.size()=64

F = normalisedF;

Selected 0 cells for refinement out of 64.
Selected 0 split points out of a possible 8.
mesh updated
Time = 0.245

DICPCG:  Solving for T, Initial residual = 0.010916, Final residual = 1.37909e-14, No Iterations 1
DICPCG:  Solving for T, Initial residual = 1.36806e-14, Final residual = 1.36806e-14, No Iterations 0
DICPCG:  Solving for T, Initial residual = 1.36806e-14, Final residual = 1.36806e-14, No Iterations 0
nonDiag.size()=64

U.size()=64

F.size()=64

F = normalisedF;

Selected 0 cells for refinement out of 64.
Selected 0 split points out of a possible 8.
mesh updated
Time = 0.25

DICPCG:  Solving for T, Initial residual = 0.0106862, Final residual = 1.35001e-14, No Iterations 1
DICPCG:  Solving for T, Initial residual = 1.33928e-14, Final residual = 1.33928e-14, No Iterations 0
DICPCG:  Solving for T, Initial residual = 1.33928e-14, Final residual = 1.33928e-14, No Iterations 0
nonDiag.size()=64

U.size()=64

F.size()=64

F = normalisedF;

Selected 0 cells for refinement out of 64.
Selected 0 split points out of a possible 8.
mesh updated
Time = 0.255

DICPCG:  Solving for T, Initial residual = 0.0104659, Final residual = 1.3221e-14, No Iterations 1
DICPCG:  Solving for T, Initial residual = 1.31083e-14, Final residual = 1.31083e-14, No Iterations 0
DICPCG:  Solving for T, Initial residual = 1.31083e-14, Final residual = 1.31083e-14, No Iterations 0
nonDiag.size()=64

U.size()=64

F.size()=64

F = normalisedF;

Selected 0 cells for refinement out of 64.
Selected 0 split points out of a possible 8.
mesh updated
Time = 0.26

DICPCG:  Solving for T, Initial residual = 0.0102545, Final residual = 1.29558e-14, No Iterations 1
DICPCG:  Solving for T, Initial residual = 1.28687e-14, Final residual = 1.28687e-14, No Iterations 0
DICPCG:  Solving for T, Initial residual = 1.28687e-14, Final residual = 1.28687e-14, No Iterations 0
nonDiag.size()=64

U.size()=64

F.size()=64

F = normalisedF;

Selected 0 cells for refinement out of 64.
Selected 0 split points out of a possible 8.
mesh updated
Time = 0.265

DICPCG:  Solving for T, Initial residual = 0.0100515, Final residual = 1.2698e-14, No Iterations 1
DICPCG:  Solving for T, Initial residual = 1.26284e-14, Final residual = 1.26284e-14, No Iterations 0
DICPCG:  Solving for T, Initial residual = 1.26284e-14, Final residual = 1.26284e-14, No Iterations 0
nonDiag.size()=64

U.size()=64

F.size()=64

F = normalisedF;

Selected 0 cells for refinement out of 64.
Selected 0 split points out of a possible 8.
mesh updated
Time = 0.27

DICPCG:  Solving for T, Initial residual = 0.00985635, Final residual = 1.24517e-14, No Iterations 1
DICPCG:  Solving for T, Initial residual = 1.23749e-14, Final residual = 1.23749e-14, No Iterations 0
DICPCG:  Solving for T, Initial residual = 1.23749e-14, Final residual = 1.23749e-14, No Iterations 0
nonDiag.size()=64

U.size()=64

F.size()=64

F = normalisedF;

Selected 0 cells for refinement out of 64.
Selected 0 split points out of a possible 8.
mesh updated
Time = 0.275

DICPCG:  Solving for T, Initial residual = 0.00966864, Final residual = 1.22143e-14, No Iterations 1
DICPCG:  Solving for T, Initial residual = 1.21463e-14, Final residual = 1.21463e-14, No Iterations 0
DICPCG:  Solving for T, Initial residual = 1.21463e-14, Final residual = 1.21463e-14, No Iterations 0
nonDiag.size()=64

U.size()=64

F.size()=64

F = normalisedF;

Selected 0 cells for refinement out of 64.
Selected 0 split points out of a possible 8.
mesh updated
Time = 0.28

DICPCG:  Solving for T, Initial residual = 0.00948795, Final residual = 1.19871e-14, No Iterations 1
DICPCG:  Solving for T, Initial residual = 1.19382e-14, Final residual = 1.19382e-14, No Iterations 0
DICPCG:  Solving for T, Initial residual = 1.19382e-14, Final residual = 1.19382e-14, No Iterations 0
nonDiag.size()=64

U.size()=64

F.size()=64

F = normalisedF;

Selected 0 cells for refinement out of 64.
Selected 0 split points out of a possible 8.
mesh updated
Time = 0.285

DICPCG:  Solving for T, Initial residual = 0.00931389, Final residual = 1.17666e-14, No Iterations 1
DICPCG:  Solving for T, Initial residual = 1.17023e-14, Final residual = 1.17023e-14, No Iterations 0
DICPCG:  Solving for T, Initial residual = 1.17023e-14, Final residual = 1.17023e-14, No Iterations 0
nonDiag.size()=64

U.size()=64

F.size()=64

F = normalisedF;

Selected 0 cells for refinement out of 64.
Selected 0 split points out of a possible 8.
mesh updated
Time = 0.29

DICPCG:  Solving for T, Initial residual = 0.0091461, Final residual = 1.15552e-14, No Iterations 1
DICPCG:  Solving for T, Initial residual = 1.14817e-14, Final residual = 1.14817e-14, No Iterations 0
DICPCG:  Solving for T, Initial residual = 1.14817e-14, Final residual = 1.14817e-14, No Iterations 0
nonDiag.size()=64

U.size()=64

F.size()=64

F = normalisedF;

Selected 0 cells for refinement out of 64.
Selected 0 split points out of a possible 8.
mesh updated
Time = 0.295

DICPCG:  Solving for T, Initial residual = 0.00898425, Final residual = 1.13498e-14, No Iterations 1
DICPCG:  Solving for T, Initial residual = 1.12823e-14, Final residual = 1.12823e-14, No Iterations 0
DICPCG:  Solving for T, Initial residual = 1.12823e-14, Final residual = 1.12823e-14, No Iterations 0
nonDiag.size()=64

U.size()=64

F.size()=64

F = normalisedF;

Selected 0 cells for refinement out of 64.
Selected 0 split points out of a possible 8.
mesh updated
Time = 0.3

DICPCG:  Solving for T, Initial residual = 0.00882803, Final residual = 1.11536e-14, No Iterations 1
DICPCG:  Solving for T, Initial residual = 1.10645e-14, Final residual = 1.10645e-14, No Iterations 0
DICPCG:  Solving for T, Initial residual = 1.10645e-14, Final residual = 1.10645e-14, No Iterations 0
nonDiag.size()=64

U.size()=64

F.size()=64

F = normalisedF;

Selected 0 cells for refinement out of 64.
Selected 0 split points out of a possible 8.
mesh updated
Time = 0.305

DICPCG:  Solving for T, Initial residual = 0.00867715, Final residual = 1.09634e-14, No Iterations 1
DICPCG:  Solving for T, Initial residual = 1.09094e-14, Final residual = 1.09094e-14, No Iterations 0
DICPCG:  Solving for T, Initial residual = 1.09094e-14, Final residual = 1.09094e-14, No Iterations 0
nonDiag.size()=64

U.size()=64

F.size()=64

F = normalisedF;

Selected 0 cells for refinement out of 64.
Selected 0 split points out of a possible 8.
mesh updated
Time = 0.31

DICPCG:  Solving for T, Initial residual = 0.00853134, Final residual = 1.07788e-14, No Iterations 1
DICPCG:  Solving for T, Initial residual = 1.07078e-14, Final residual = 1.07078e-14, No Iterations 0
DICPCG:  Solving for T, Initial residual = 1.07078e-14, Final residual = 1.07078e-14, No Iterations 0
nonDiag.size()=64

U.size()=64

F.size()=64

F = normalisedF;

Selected 0 cells for refinement out of 64.
Selected 0 split points out of a possible 8.
mesh updated
Time = 0.315

DICPCG:  Solving for T, Initial residual = 0.00839036, Final residual = 1.06002e-14, No Iterations 1
DICPCG:  Solving for T, Initial residual = 1.05547e-14, Final residual = 1.05547e-14, No Iterations 0
DICPCG:  Solving for T, Initial residual = 1.05547e-14, Final residual = 1.05547e-14, No Iterations 0
nonDiag.size()=64

U.size()=64

F.size()=64

F = normalisedF;

Selected 0 cells for refinement out of 64.
Selected 0 split points out of a possible 8.
mesh updated
Time = 0.32

DICPCG:  Solving for T, Initial residual = 0.00825396, Final residual = 1.04277e-14, No Iterations 1
DICPCG:  Solving for T, Initial residual = 1.03899e-14, Final residual = 1.03899e-14, No Iterations 0
DICPCG:  Solving for T, Initial residual = 1.03899e-14, Final residual = 1.03899e-14, No Iterations 0
nonDiag.size()=64

U.size()=64

F.size()=64

F = normalisedF;

Selected 0 cells for refinement out of 64.
Selected 0 split points out of a possible 8.
mesh updated
Time = 0.325

DICPCG:  Solving for T, Initial residual = 0.00812192, Final residual = 1.02612e-14, No Iterations 1
DICPCG:  Solving for T, Initial residual = 1.0216e-14, Final residual = 1.0216e-14, No Iterations 0
DICPCG:  Solving for T, Initial residual = 1.0216e-14, Final residual = 1.0216e-14, No Iterations 0
nonDiag.size()=64

U.size()=64

F.size()=64

F = normalisedF;

Selected 0 cells for refinement out of 64.
Selected 0 split points out of a possible 8.
mesh updated
Time = 0.33

DICPCG:  Solving for T, Initial residual = 0.00799404, Final residual = 1.01001e-14, No Iterations 1
DICPCG:  Solving for T, Initial residual = 1.00574e-14, Final residual = 1.00574e-14, No Iterations 0
DICPCG:  Solving for T, Initial residual = 1.00574e-14, Final residual = 1.00574e-14, No Iterations 0
nonDiag.size()=64

U.size()=64

F.size()=64

F = normalisedF;

Selected 0 cells for refinement out of 64.
Selected 0 split points out of a possible 8.
mesh updated
Time = 0.335

DICPCG:  Solving for T, Initial residual = 0.00787013, Final residual = 9.94257e-15, No Iterations 1
DICPCG:  Solving for T, Initial residual = 9.95231e-15, Final residual = 9.95231e-15, No Iterations 0
DICPCG:  Solving for T, Initial residual = 9.95231e-15, Final residual = 9.95231e-15, No Iterations 0
nonDiag.size()=64

U.size()=64

F.size()=64

F = normalisedF;

Selected 0 cells for refinement out of 64.
Selected 0 split points out of a possible 8.
mesh updated
Time = 0.34

DICPCG:  Solving for T, Initial residual = 0.00775, Final residual = 9.79192e-15, No Iterations 1
DICPCG:  Solving for T, Initial residual = 9.81059e-15, Final residual = 9.81059e-15, No Iterations 0
DICPCG:  Solving for T, Initial residual = 9.81059e-15, Final residual = 9.81059e-15, No Iterations 0
nonDiag.size()=64

U.size()=64

F.size()=64

F = normalisedF;

Selected 0 cells for refinement out of 64.
Selected 0 split points out of a possible 8.
mesh updated
Time = 0.345

DICPCG:  Solving for T, Initial residual = 0.00763348, Final residual = 9.64368e-15, No Iterations 1
DICPCG:  Solving for T, Initial residual = 9.60955e-15, Final residual = 9.60955e-15, No Iterations 0
DICPCG:  Solving for T, Initial residual = 9.60955e-15, Final residual = 9.60955e-15, No Iterations 0
nonDiag.size()=64

U.size()=64

F.size()=64

F = normalisedF;

Selected 0 cells for refinement out of 64.
Selected 0 split points out of a possible 8.
mesh updated
Time = 0.35

DICPCG:  Solving for T, Initial residual = 0.00752041, Final residual = 9.50197e-15, No Iterations 1
DICPCG:  Solving for T, Initial residual = 9.49286e-15, Final residual = 9.49286e-15, No Iterations 0
DICPCG:  Solving for T, Initial residual = 9.49286e-15, Final residual = 9.49286e-15, No Iterations 0
nonDiag.size()=64

U.size()=64

F.size()=64

F = normalisedF;

Selected 0 cells for refinement out of 64.
Selected 0 split points out of a possible 8.
mesh updated
Time = 0.355

DICPCG:  Solving for T, Initial residual = 0.00741065, Final residual = 9.36254e-15, No Iterations 1
DICPCG:  Solving for T, Initial residual = 9.35496e-15, Final residual = 9.35496e-15, No Iterations 0
DICPCG:  Solving for T, Initial residual = 9.35496e-15, Final residual = 9.35496e-15, No Iterations 0
nonDiag.size()=64

U.size()=64

F.size()=64

F = normalisedF;

Selected 0 cells for refinement out of 64.
Selected 0 split points out of a possible 8.
mesh updated
Time = 0.36

DICPCG:  Solving for T, Initial residual = 0.00730405, Final residual = 9.22866e-15, No Iterations 1
DICPCG:  Solving for T, Initial residual = 9.2269e-15, Final residual = 9.2269e-15, No Iterations 0
DICPCG:  Solving for T, Initial residual = 9.2269e-15, Final residual = 9.2269e-15, No Iterations 0
nonDiag.size()=64

U.size()=64

F.size()=64

F = normalisedF;

Selected 0 cells for refinement out of 64.
Selected 0 split points out of a possible 8.
mesh updated
Time = 0.365

DICPCG:  Solving for T, Initial residual = 0.00720047, Final residual = 9.0975e-15, No Iterations 1
DICPCG:  Solving for T, Initial residual = 9.09067e-15, Final residual = 9.09067e-15, No Iterations 0
DICPCG:  Solving for T, Initial residual = 9.09067e-15, Final residual = 9.09067e-15, No Iterations 0
nonDiag.size()=64

U.size()=64

F.size()=64

F = normalisedF;

Selected 0 cells for refinement out of 64.
Selected 0 split points out of a possible 8.
mesh updated
Time = 0.37

DICPCG:  Solving for T, Initial residual = 0.00709978, Final residual = 8.97129e-15, No Iterations 1
DICPCG:  Solving for T, Initial residual = 8.9827e-15, Final residual = 8.9827e-15, No Iterations 0
DICPCG:  Solving for T, Initial residual = 8.9827e-15, Final residual = 8.9827e-15, No Iterations 0
nonDiag.size()=64

U.size()=64

F.size()=64

F = normalisedF;

Selected 0 cells for refinement out of 64.
Selected 0 split points out of a possible 8.
mesh updated
Time = 0.375

DICPCG:  Solving for T, Initial residual = 0.00700188, Final residual = 8.84593e-15, No Iterations 1
DICPCG:  Solving for T, Initial residual = 8.85388e-15, Final residual = 8.85388e-15, No Iterations 0
DICPCG:  Solving for T, Initial residual = 8.85388e-15, Final residual = 8.85388e-15, No Iterations 0
nonDiag.size()=64

U.size()=64

F.size()=64

F = normalisedF;

Selected 0 cells for refinement out of 64.
Selected 0 split points out of a possible 8.
mesh updated
Time = 0.38

DICPCG:  Solving for T, Initial residual = 0.00690664, Final residual = 8.72596e-15, No Iterations 1
DICPCG:  Solving for T, Initial residual = 8.75288e-15, Final residual = 8.75288e-15, No Iterations 0
DICPCG:  Solving for T, Initial residual = 8.75288e-15, Final residual = 8.75288e-15, No Iterations 0
nonDiag.size()=64

U.size()=64

F.size()=64

F = normalisedF;

Selected 0 cells for refinement out of 64.
Selected 0 split points out of a possible 8.
mesh updated
Time = 0.385

DICPCG:  Solving for T, Initial residual = 0.00681395, Final residual = 8.60887e-15, No Iterations 1
DICPCG:  Solving for T, Initial residual = 8.63491e-15, Final residual = 8.63491e-15, No Iterations 0
DICPCG:  Solving for T, Initial residual = 8.63491e-15, Final residual = 8.63491e-15, No Iterations 0
nonDiag.size()=64

U.size()=64

F.size()=64

F = normalisedF;

Selected 0 cells for refinement out of 64.
Selected 0 split points out of a possible 8.
mesh updated
Time = 0.39

DICPCG:  Solving for T, Initial residual = 0.00672372, Final residual = 8.49585e-15, No Iterations 1
DICPCG:  Solving for T, Initial residual = 8.49429e-15, Final residual = 8.49429e-15, No Iterations 0
DICPCG:  Solving for T, Initial residual = 8.49429e-15, Final residual = 8.49429e-15, No Iterations 0
nonDiag.size()=64

U.size()=64

F.size()=64

F = normalisedF;

Selected 0 cells for refinement out of 64.
Selected 0 split points out of a possible 8.
mesh updated
Time = 0.395

DICPCG:  Solving for T, Initial residual = 0.00663585, Final residual = 8.38462e-15, No Iterations 1
DICPCG:  Solving for T, Initial residual = 8.39423e-15, Final residual = 8.39423e-15, No Iterations 0
DICPCG:  Solving for T, Initial residual = 8.39423e-15, Final residual = 8.39423e-15, No Iterations 0
nonDiag.size()=64

U.size()=64

F.size()=64

F = normalisedF;

Selected 0 cells for refinement out of 64.
Selected 0 split points out of a possible 8.
mesh updated
Time = 0.4

DICPCG:  Solving for T, Initial residual = 0.00655025, Final residual = 8.27708e-15, No Iterations 1
DICPCG:  Solving for T, Initial residual = 8.32739e-15, Final residual = 8.32739e-15, No Iterations 0
DICPCG:  Solving for T, Initial residual = 8.32739e-15, Final residual = 8.32739e-15, No Iterations 0
nonDiag.size()=64

U.size()=64

F.size()=64

F = normalisedF;

Selected 0 cells for refinement out of 64.
Selected 0 split points out of a possible 8.
mesh updated
Time = 0.405

DICPCG:  Solving for T, Initial residual = 0.00646683, Final residual = 8.16999e-15, No Iterations 1
DICPCG:  Solving for T, Initial residual = 8.18849e-15, Final residual = 8.18849e-15, No Iterations 0
DICPCG:  Solving for T, Initial residual = 8.18849e-15, Final residual = 8.18849e-15, No Iterations 0
nonDiag.size()=64

U.size()=64

F.size()=64

F = normalisedF;

Selected 0 cells for refinement out of 64.
Selected 0 split points out of a possible 8.
mesh updated
Time = 0.41

DICPCG:  Solving for T, Initial residual = 0.0063855, Final residual = 8.06755e-15, No Iterations 1
DICPCG:  Solving for T, Initial residual = 8.10073e-15, Final residual = 8.10073e-15, No Iterations 0
DICPCG:  Solving for T, Initial residual = 8.10073e-15, Final residual = 8.10073e-15, No Iterations 0
nonDiag.size()=64

U.size()=64

F.size()=64

F = normalisedF;

Selected 0 cells for refinement out of 64.
Selected 0 split points out of a possible 8.
mesh updated
Time = 0.415

DICPCG:  Solving for T, Initial residual = 0.0063062, Final residual = 7.9679e-15, No Iterations 1
DICPCG:  Solving for T, Initial residual = 7.97389e-15, Final residual = 7.97389e-15, No Iterations 0
DICPCG:  Solving for T, Initial residual = 7.97389e-15, Final residual = 7.97389e-15, No Iterations 0
nonDiag.size()=64

U.size()=64

F.size()=64

F = normalisedF;

Selected 0 cells for refinement out of 64.
Selected 0 split points out of a possible 8.
mesh updated
Time = 0.42

DICPCG:  Solving for T, Initial residual = 0.00622884, Final residual = 7.87115e-15, No Iterations 1
DICPCG:  Solving for T, Initial residual = 7.87684e-15, Final residual = 7.87684e-15, No Iterations 0
DICPCG:  Solving for T, Initial residual = 7.87684e-15, Final residual = 7.87684e-15, No Iterations 0
nonDiag.size()=64

U.size()=64

F.size()=64

F = normalisedF;

Selected 0 cells for refinement out of 64.
Selected 0 split points out of a possible 8.
mesh updated
Time = 0.425

DICPCG:  Solving for T, Initial residual = 0.00615336, Final residual = 7.774e-15, No Iterations 1
DICPCG:  Solving for T, Initial residual = 7.78288e-15, Final residual = 7.78288e-15, No Iterations 0
DICPCG:  Solving for T, Initial residual = 7.78288e-15, Final residual = 7.78288e-15, No Iterations 0
nonDiag.size()=64

U.size()=64

F.size()=64

F = normalisedF;

Selected 0 cells for refinement out of 64.
Selected 0 split points out of a possible 8.
mesh updated
Time = 0.43

DICPCG:  Solving for T, Initial residual = 0.00607969, Final residual = 7.68146e-15, No Iterations 1
DICPCG:  Solving for T, Initial residual = 7.68455e-15, Final residual = 7.68455e-15, No Iterations 0
DICPCG:  Solving for T, Initial residual = 7.68455e-15, Final residual = 7.68455e-15, No Iterations 0
nonDiag.size()=64

U.size()=64

F.size()=64

F = normalisedF;

Selected 0 cells for refinement out of 64.
Selected 0 split points out of a possible 8.
mesh updated
Time = 0.435

DICPCG:  Solving for T, Initial residual = 0.00600776, Final residual = 7.59094e-15, No Iterations 1
DICPCG:  Solving for T, Initial residual = 7.58805e-15, Final residual = 7.58805e-15, No Iterations 0
DICPCG:  Solving for T, Initial residual = 7.58805e-15, Final residual = 7.58805e-15, No Iterations 0
nonDiag.size()=64

U.size()=64

F.size()=64

F = normalisedF;

Selected 0 cells for refinement out of 64.
Selected 0 split points out of a possible 8.
mesh updated
Time = 0.44

DICPCG:  Solving for T, Initial residual = 0.00593751, Final residual = 7.50267e-15, No Iterations 1
DICPCG:  Solving for T, Initial residual = 7.53079e-15, Final residual = 7.53079e-15, No Iterations 0
DICPCG:  Solving for T, Initial residual = 7.53079e-15, Final residual = 7.53079e-15, No Iterations 0
nonDiag.size()=64

U.size()=64

F.size()=64

F = normalisedF;

Selected 0 cells for refinement out of 64.
Selected 0 split points out of a possible 8.
mesh updated
Time = 0.445

DICPCG:  Solving for T, Initial residual = 0.00586889, Final residual = 7.41577e-15, No Iterations 1
DICPCG:  Solving for T, Initial residual = 7.42e-15, Final residual = 7.42e-15, No Iterations 0
DICPCG:  Solving for T, Initial residual = 7.42e-15, Final residual = 7.42e-15, No Iterations 0
nonDiag.size()=64

U.size()=64

F.size()=64

F = normalisedF;

Selected 0 cells for refinement out of 64.
Selected 0 split points out of a possible 8.
mesh updated
Time = 0.45

DICPCG:  Solving for T, Initial residual = 0.00580183, Final residual = 7.33055e-15, No Iterations 1
DICPCG:  Solving for T, Initial residual = 7.33389e-15, Final residual = 7.33389e-15, No Iterations 0
DICPCG:  Solving for T, Initial residual = 7.33389e-15, Final residual = 7.33389e-15, No Iterations 0
nonDiag.size()=64

U.size()=64

F.size()=64

F = normalisedF;

Selected 0 cells for refinement out of 64.
Selected 0 split points out of a possible 8.
mesh updated
Time = 0.455

DICPCG:  Solving for T, Initial residual = 0.0057363, Final residual = 7.24756e-15, No Iterations 1
DICPCG:  Solving for T, Initial residual = 7.30275e-15, Final residual = 7.30275e-15, No Iterations 0
DICPCG:  Solving for T, Initial residual = 7.30275e-15, Final residual = 7.30275e-15, No Iterations 0
nonDiag.size()=64

U.size()=64

F.size()=64

F = normalisedF;

Selected 0 cells for refinement out of 64.
Selected 0 split points out of a possible 8.
mesh updated
Time = 0.46

DICPCG:  Solving for T, Initial residual = 0.00567222, Final residual = 7.16744e-15, No Iterations 1
DICPCG:  Solving for T, Initial residual = 7.15735e-15, Final residual = 7.15735e-15, No Iterations 0
DICPCG:  Solving for T, Initial residual = 7.15735e-15, Final residual = 7.15735e-15, No Iterations 0
nonDiag.size()=64

U.size()=64

F.size()=64

F = normalisedF;

Selected 0 cells for refinement out of 64.
Selected 0 split points out of a possible 8.
mesh updated
Time = 0.465

DICPCG:  Solving for T, Initial residual = 0.00560956, Final residual = 7.08845e-15, No Iterations 1
DICPCG:  Solving for T, Initial residual = 7.08314e-15, Final residual = 7.08314e-15, No Iterations 0
DICPCG:  Solving for T, Initial residual = 7.08314e-15, Final residual = 7.08314e-15, No Iterations 0
nonDiag.size()=64

U.size()=64

F.size()=64

F = normalisedF;

Selected 0 cells for refinement out of 64.
Selected 0 split points out of a possible 8.
mesh updated
Time = 0.47

DICPCG:  Solving for T, Initial residual = 0.00554827, Final residual = 7.01094e-15, No Iterations 1
DICPCG:  Solving for T, Initial residual = 7.03537e-15, Final residual = 7.03537e-15, No Iterations 0
DICPCG:  Solving for T, Initial residual = 7.03537e-15, Final residual = 7.03537e-15, No Iterations 0
nonDiag.size()=64

U.size()=64

F.size()=64

F = normalisedF;

Selected 0 cells for refinement out of 64.
Selected 0 split points out of a possible 8.
mesh updated
Time = 0.475

DICPCG:  Solving for T, Initial residual = 0.00548831, Final residual = 6.93492e-15, No Iterations 1
DICPCG:  Solving for T, Initial residual = 6.94456e-15, Final residual = 6.94456e-15, No Iterations 0
DICPCG:  Solving for T, Initial residual = 6.94456e-15, Final residual = 6.94456e-15, No Iterations 0
nonDiag.size()=64

U.size()=64

F.size()=64

F = normalisedF;

Selected 0 cells for refinement out of 64.
Selected 0 split points out of a possible 8.
mesh updated
Time = 0.48

DICPCG:  Solving for T, Initial residual = 0.00542963, Final residual = 6.8612e-15, No Iterations 1
DICPCG:  Solving for T, Initial residual = 6.86657e-15, Final residual = 6.86657e-15, No Iterations 0
DICPCG:  Solving for T, Initial residual = 6.86657e-15, Final residual = 6.86657e-15, No Iterations 0
nonDiag.size()=64

U.size()=64

F.size()=64

F = normalisedF;

Selected 0 cells for refinement out of 64.
Selected 0 split points out of a possible 8.
mesh updated
Time = 0.485

DICPCG:  Solving for T, Initial residual = 0.00537219, Final residual = 6.78889e-15, No Iterations 1
DICPCG:  Solving for T, Initial residual = 6.83172e-15, Final residual = 6.83172e-15, No Iterations 0
DICPCG:  Solving for T, Initial residual = 6.83172e-15, Final residual = 6.83172e-15, No Iterations 0
nonDiag.size()=64

U.size()=64

F.size()=64

F = normalisedF;

Selected 0 cells for refinement out of 64.
Selected 0 split points out of a possible 8.
mesh updated
Time = 0.49

DICPCG:  Solving for T, Initial residual = 0.00531595, Final residual = 6.71736e-15, No Iterations 1
DICPCG:  Solving for T, Initial residual = 6.72927e-15, Final residual = 6.72927e-15, No Iterations 0
DICPCG:  Solving for T, Initial residual = 6.72927e-15, Final residual = 6.72927e-15, No Iterations 0
nonDiag.size()=64

U.size()=64

F.size()=64

F = normalisedF;

Selected 0 cells for refinement out of 64.
Selected 0 split points out of a possible 8.
mesh updated
Time = 0.495

DICPCG:  Solving for T, Initial residual = 0.00526088, Final residual = 6.648e-15, No Iterations 1
DICPCG:  Solving for T, Initial residual = 6.64399e-15, Final residual = 6.64399e-15, No Iterations 0
DICPCG:  Solving for T, Initial residual = 6.64399e-15, Final residual = 6.64399e-15, No Iterations 0
nonDiag.size()=64

U.size()=64

F.size()=64

F = normalisedF;

Selected 0 cells for refinement out of 64.
Selected 0 split points out of a possible 8.
mesh updated
Time = 0.5

DICPCG:  Solving for T, Initial residual = 0.00520694, Final residual = 6.57957e-15, No Iterations 1
DICPCG:  Solving for T, Initial residual = 6.56843e-15, Final residual = 6.56843e-15, No Iterations 0
DICPCG:  Solving for T, Initial residual = 6.56843e-15, Final residual = 6.56843e-15, No Iterations 0
nonDiag.size()=64

U.size()=64

F.size()=64

F = normalisedF;

Selected 0 cells for refinement out of 64.
Selected 0 split points out of a possible 8.
mesh updated
Time = 0.505

DICPCG:  Solving for T, Initial residual = 0.0051541, Final residual = 6.51228e-15, No Iterations 1
DICPCG:  Solving for T, Initial residual = 6.52433e-15, Final residual = 6.52433e-15, No Iterations 0
DICPCG:  Solving for T, Initial residual = 6.52433e-15, Final residual = 6.52433e-15, No Iterations 0
nonDiag.size()=64

U.size()=64

F.size()=64

F = normalisedF;

Selected 0 cells for refinement out of 64.
Selected 0 split points out of a possible 8.
mesh updated
Time = 0.51

DICPCG:  Solving for T, Initial residual = 0.00510231, Final residual = 6.44798e-15, No Iterations 1
DICPCG:  Solving for T, Initial residual = 6.44644e-15, Final residual = 6.44644e-15, No Iterations 0
DICPCG:  Solving for T, Initial residual = 6.44644e-15, Final residual = 6.44644e-15, No Iterations 0
nonDiag.size()=64

U.size()=64

F.size()=64

F = normalisedF;

Selected 0 cells for refinement out of 64.
Selected 0 split points out of a possible 8.
mesh updated
Time = 0.515

DICPCG:  Solving for T, Initial residual = 0.00505156, Final residual = 6.38412e-15, No Iterations 1
DICPCG:  Solving for T, Initial residual = 6.39947e-15, Final residual = 6.39947e-15, No Iterations 0
DICPCG:  Solving for T, Initial residual = 6.39947e-15, Final residual = 6.39947e-15, No Iterations 0
nonDiag.size()=64

U.size()=64

F.size()=64

F = normalisedF;

Selected 0 cells for refinement out of 64.
Selected 0 split points out of a possible 8.
mesh updated
Time = 0.52

DICPCG:  Solving for T, Initial residual = 0.00500181, Final residual = 6.32065e-15, No Iterations 1
DICPCG:  Solving for T, Initial residual = 6.35475e-15, Final residual = 6.35475e-15, No Iterations 0
DICPCG:  Solving for T, Initial residual = 6.35475e-15, Final residual = 6.35475e-15, No Iterations 0
nonDiag.size()=64

U.size()=64

F.size()=64

F = normalisedF;

Selected 0 cells for refinement out of 64.
Selected 0 split points out of a possible 8.
mesh updated
Time = 0.525

DICPCG:  Solving for T, Initial residual = 0.00495302, Final residual = 6.25858e-15, No Iterations 1
DICPCG:  Solving for T, Initial residual = 6.27902e-15, Final residual = 6.27902e-15, No Iterations 0
DICPCG:  Solving for T, Initial residual = 6.27902e-15, Final residual = 6.27902e-15, No Iterations 0
nonDiag.size()=64

U.size()=64

F.size()=64

F = normalisedF;

Selected 0 cells for refinement out of 64.
Selected 0 split points out of a possible 8.
mesh updated
Time = 0.53

DICPCG:  Solving for T, Initial residual = 0.00490518, Final residual = 6.19861e-15, No Iterations 1
DICPCG:  Solving for T, Initial residual = 6.24066e-15, Final residual = 6.24066e-15, No Iterations 0
DICPCG:  Solving for T, Initial residual = 6.24066e-15, Final residual = 6.24066e-15, No Iterations 0
nonDiag.size()=64

U.size()=64

F.size()=64

F = normalisedF;

Selected 0 cells for refinement out of 64.
Selected 0 split points out of a possible 8.
mesh updated
Time = 0.535

DICPCG:  Solving for T, Initial residual = 0.00485826, Final residual = 6.1392e-15, No Iterations 1
DICPCG:  Solving for T, Initial residual = 6.16752e-15, Final residual = 6.16752e-15, No Iterations 0
DICPCG:  Solving for T, Initial residual = 6.16752e-15, Final residual = 6.16752e-15, No Iterations 0
nonDiag.size()=64

U.size()=64

F.size()=64

F = normalisedF;

Selected 0 cells for refinement out of 64.
Selected 0 split points out of a possible 8.
mesh updated
Time = 0.54

DICPCG:  Solving for T, Initial residual = 0.00481222, Final residual = 6.08143e-15, No Iterations 1
DICPCG:  Solving for T, Initial residual = 6.10239e-15, Final residual = 6.10239e-15, No Iterations 0
DICPCG:  Solving for T, Initial residual = 6.10239e-15, Final residual = 6.10239e-15, No Iterations 0
nonDiag.size()=64

U.size()=64

F.size()=64

F = normalisedF;

Selected 0 cells for refinement out of 64.
Selected 0 split points out of a possible 8.
mesh updated
Time = 0.545

DICPCG:  Solving for T, Initial residual = 0.00476705, Final residual = 6.02387e-15, No Iterations 1
DICPCG:  Solving for T, Initial residual = 6.02348e-15, Final residual = 6.02348e-15, No Iterations 0
DICPCG:  Solving for T, Initial residual = 6.02348e-15, Final residual = 6.02348e-15, No Iterations 0
nonDiag.size()=64

U.size()=64

F.size()=64

F = normalisedF;

Selected 0 cells for refinement out of 64.
Selected 0 split points out of a possible 8.
mesh updated
Time = 0.55

DICPCG:  Solving for T, Initial residual = 0.00472273, Final residual = 5.96811e-15, No Iterations 1
DICPCG:  Solving for T, Initial residual = 5.96101e-15, Final residual = 5.96101e-15, No Iterations 0
DICPCG:  Solving for T, Initial residual = 5.96101e-15, Final residual = 5.96101e-15, No Iterations 0
nonDiag.size()=64

U.size()=64

F.size()=64

F = normalisedF;

Selected 0 cells for refinement out of 64.
Selected 0 split points out of a possible 8.
mesh updated
Time = 0.555

DICPCG:  Solving for T, Initial residual = 0.00467921, Final residual = 5.91306e-15, No Iterations 1
DICPCG:  Solving for T, Initial residual = 5.91707e-15, Final residual = 5.91707e-15, No Iterations 0
DICPCG:  Solving for T, Initial residual = 5.91707e-15, Final residual = 5.91707e-15, No Iterations 0
nonDiag.size()=64

U.size()=64

F.size()=64

F = normalisedF;

Selected 0 cells for refinement out of 64.
Selected 0 split points out of a possible 8.
mesh updated
Time = 0.56

DICPCG:  Solving for T, Initial residual = 0.0046365, Final residual = 5.85887e-15, No Iterations 1
DICPCG:  Solving for T, Initial residual = 5.84301e-15, Final residual = 5.84301e-15, No Iterations 0
DICPCG:  Solving for T, Initial residual = 5.84301e-15, Final residual = 5.84301e-15, No Iterations 0
nonDiag.size()=64

U.size()=64

F.size()=64

F = normalisedF;

Selected 0 cells for refinement out of 64.
Selected 0 split points out of a possible 8.
mesh updated
Time = 0.565

DICPCG:  Solving for T, Initial residual = 0.00459455, Final residual = 5.80585e-15, No Iterations 1
DICPCG:  Solving for T, Initial residual = 5.79154e-15, Final residual = 5.79154e-15, No Iterations 0
DICPCG:  Solving for T, Initial residual = 5.79154e-15, Final residual = 5.79154e-15, No Iterations 0
nonDiag.size()=64

U.size()=64

F.size()=64

F = normalisedF;

Selected 0 cells for refinement out of 64.
Selected 0 split points out of a possible 8.
mesh updated
Time = 0.57

DICPCG:  Solving for T, Initial residual = 0.00455336, Final residual = 5.75397e-15, No Iterations 1
DICPCG:  Solving for T, Initial residual = 5.74825e-15, Final residual = 5.74825e-15, No Iterations 0
DICPCG:  Solving for T, Initial residual = 5.74825e-15, Final residual = 5.74825e-15, No Iterations 0
nonDiag.size()=64

U.size()=64

F.size()=64

F = normalisedF;

Selected 0 cells for refinement out of 64.
Selected 0 split points out of a possible 8.
mesh updated
Time = 0.575

DICPCG:  Solving for T, Initial residual = 0.0045129, Final residual = 5.70272e-15, No Iterations 1
DICPCG:  Solving for T, Initial residual = 5.7033e-15, Final residual = 5.7033e-15, No Iterations 0
DICPCG:  Solving for T, Initial residual = 5.7033e-15, Final residual = 5.7033e-15, No Iterations 0
nonDiag.size()=64

U.size()=64

F.size()=64

F = normalisedF;

Selected 0 cells for refinement out of 64.
Selected 0 split points out of a possible 8.
mesh updated
Time = 0.58

DICPCG:  Solving for T, Initial residual = 0.00447315, Final residual = 5.65314e-15, No Iterations 1
DICPCG:  Solving for T, Initial residual = 5.65408e-15, Final residual = 5.65408e-15, No Iterations 0
DICPCG:  Solving for T, Initial residual = 5.65408e-15, Final residual = 5.65408e-15, No Iterations 0
nonDiag.size()=64

U.size()=64

F.size()=64

F = normalisedF;

Selected 0 cells for refinement out of 64.
Selected 0 split points out of a possible 8.
mesh updated
Time = 0.585

DICPCG:  Solving for T, Initial residual = 0.0044341, Final residual = 5.60339e-15, No Iterations 1
DICPCG:  Solving for T, Initial residual = 5.62898e-15, Final residual = 5.62898e-15, No Iterations 0
DICPCG:  Solving for T, Initial residual = 5.62898e-15, Final residual = 5.62898e-15, No Iterations 0
nonDiag.size()=64

U.size()=64

F.size()=64

F = normalisedF;

Selected 0 cells for refinement out of 64.
Selected 0 split points out of a possible 8.
mesh updated
Time = 0.59

DICPCG:  Solving for T, Initial residual = 0.00439572, Final residual = 5.55463e-15, No Iterations 1
DICPCG:  Solving for T, Initial residual = 5.56707e-15, Final residual = 5.56707e-15, No Iterations 0
DICPCG:  Solving for T, Initial residual = 5.56707e-15, Final residual = 5.56707e-15, No Iterations 0
nonDiag.size()=64

U.size()=64

F.size()=64

F = normalisedF;

Selected 0 cells for refinement out of 64.
Selected 0 split points out of a possible 8.
mesh updated
Time = 0.595

DICPCG:  Solving for T, Initial residual = 0.00435801, Final residual = 5.50729e-15, No Iterations 1
DICPCG:  Solving for T, Initial residual = 5.51375e-15, Final residual = 5.51375e-15, No Iterations 0
DICPCG:  Solving for T, Initial residual = 5.51375e-15, Final residual = 5.51375e-15, No Iterations 0
nonDiag.size()=64

U.size()=64

F.size()=64

F = normalisedF;

Selected 0 cells for refinement out of 64.
Selected 0 split points out of a possible 8.
mesh updated
Time = 0.6

DICPCG:  Solving for T, Initial residual = 0.00432093, Final residual = 5.46085e-15, No Iterations 1
DICPCG:  Solving for T, Initial residual = 5.49207e-15, Final residual = 5.49207e-15, No Iterations 0
DICPCG:  Solving for T, Initial residual = 5.49207e-15, Final residual = 5.49207e-15, No Iterations 0
nonDiag.size()=64

U.size()=64

F.size()=64

F = normalisedF;

Selected 0 cells for refinement out of 64.
Selected 0 split points out of a possible 8.
mesh updated
Time = 0.605

DICPCG:  Solving for T, Initial residual = 0.00428448, Final residual = 5.41464e-15, No Iterations 1
DICPCG:  Solving for T, Initial residual = 5.43077e-15, Final residual = 5.43077e-15, No Iterations 0
DICPCG:  Solving for T, Initial residual = 5.43077e-15, Final residual = 5.43077e-15, No Iterations 0
nonDiag.size()=64

U.size()=64

F.size()=64

F = normalisedF;

Selected 0 cells for refinement out of 64.
Selected 0 split points out of a possible 8.
mesh updated
Time = 0.61

DICPCG:  Solving for T, Initial residual = 0.00424864, Final residual = 5.36933e-15, No Iterations 1
DICPCG:  Solving for T, Initial residual = 5.39424e-15, Final residual = 5.39424e-15, No Iterations 0
DICPCG:  Solving for T, Initial residual = 5.39424e-15, Final residual = 5.39424e-15, No Iterations 0
nonDiag.size()=64

U.size()=64

F.size()=64

F = normalisedF;

Selected 0 cells for refinement out of 64.
Selected 0 split points out of a possible 8.
mesh updated
Time = 0.615

DICPCG:  Solving for T, Initial residual = 0.0042134, Final residual = 5.32445e-15, No Iterations 1
DICPCG:  Solving for T, Initial residual = 5.3415e-15, Final residual = 5.3415e-15, No Iterations 0
DICPCG:  Solving for T, Initial residual = 5.3415e-15, Final residual = 5.3415e-15, No Iterations 0
nonDiag.size()=64

U.size()=64

F.size()=64

F = normalisedF;

Selected 0 cells for refinement out of 64.
Selected 0 split points out of a possible 8.
mesh updated
Time = 0.62

DICPCG:  Solving for T, Initial residual = 0.00417873, Final residual = 5.28109e-15, No Iterations 1
DICPCG:  Solving for T, Initial residual = 5.3125e-15, Final residual = 5.3125e-15, No Iterations 0
DICPCG:  Solving for T, Initial residual = 5.3125e-15, Final residual = 5.3125e-15, No Iterations 0
nonDiag.size()=64

U.size()=64

F.size()=64

F = normalisedF;

Selected 0 cells for refinement out of 64.
Selected 0 split points out of a possible 8.
mesh updated
Time = 0.625

DICPCG:  Solving for T, Initial residual = 0.00414463, Final residual = 5.2382e-15, No Iterations 1
DICPCG:  Solving for T, Initial residual = 5.28383e-15, Final residual = 5.28383e-15, No Iterations 0
DICPCG:  Solving for T, Initial residual = 5.28383e-15, Final residual = 5.28383e-15, No Iterations 0
nonDiag.size()=64

U.size()=64

F.size()=64

F = normalisedF;

Selected 0 cells for refinement out of 64.
Selected 0 split points out of a possible 8.
mesh updated
Time = 0.63

DICPCG:  Solving for T, Initial residual = 0.00411108, Final residual = 5.19558e-15, No Iterations 1
DICPCG:  Solving for T, Initial residual = 5.22366e-15, Final residual = 5.22366e-15, No Iterations 0
DICPCG:  Solving for T, Initial residual = 5.22366e-15, Final residual = 5.22366e-15, No Iterations 0
nonDiag.size()=64

U.size()=64

F.size()=64

F = normalisedF;

Selected 0 cells for refinement out of 64.
Selected 0 split points out of a possible 8.
mesh updated
Time = 0.635

DICPCG:  Solving for T, Initial residual = 0.00407808, Final residual = 5.15343e-15, No Iterations 1
DICPCG:  Solving for T, Initial residual = 5.15342e-15, Final residual = 5.15342e-15, No Iterations 0
DICPCG:  Solving for T, Initial residual = 5.15342e-15, Final residual = 5.15342e-15, No Iterations 0
nonDiag.size()=64

U.size()=64

F.size()=64

F = normalisedF;

Selected 0 cells for refinement out of 64.
Selected 0 split points out of a possible 8.
mesh updated
Time = 0.64

DICPCG:  Solving for T, Initial residual = 0.0040456, Final residual = 5.11271e-15, No Iterations 1
DICPCG:  Solving for T, Initial residual = 5.17926e-15, Final residual = 5.17926e-15, No Iterations 0
DICPCG:  Solving for T, Initial residual = 5.17926e-15, Final residual = 5.17926e-15, No Iterations 0
nonDiag.size()=64

U.size()=64

F.size()=64

F = normalisedF;

Selected 0 cells for refinement out of 64.
Selected 0 split points out of a possible 8.
mesh updated
Time = 0.645

DICPCG:  Solving for T, Initial residual = 0.00401363, Final residual = 5.07268e-15, No Iterations 1
DICPCG:  Solving for T, Initial residual = 5.10668e-15, Final residual = 5.10668e-15, No Iterations 0
DICPCG:  Solving for T, Initial residual = 5.10668e-15, Final residual = 5.10668e-15, No Iterations 0
nonDiag.size()=64

U.size()=64

F.size()=64

F = normalisedF;

Selected 0 cells for refinement out of 64.
Selected 0 split points out of a possible 8.
mesh updated
Time = 0.65

DICPCG:  Solving for T, Initial residual = 0.00398216, Final residual = 5.03234e-15, No Iterations 1
DICPCG:  Solving for T, Initial residual = 5.10512e-15, Final residual = 5.10512e-15, No Iterations 0
DICPCG:  Solving for T, Initial residual = 5.10512e-15, Final residual = 5.10512e-15, No Iterations 0
nonDiag.size()=64

U.size()=64

F.size()=64

F = normalisedF;

Selected 0 cells for refinement out of 64.
Selected 0 split points out of a possible 8.
mesh updated
Time = 0.655

DICPCG:  Solving for T, Initial residual = 0.00395118, Final residual = 4.99338e-15, No Iterations 1
DICPCG:  Solving for T, Initial residual = 5.03125e-15, Final residual = 5.03125e-15, No Iterations 0
DICPCG:  Solving for T, Initial residual = 5.03125e-15, Final residual = 5.03125e-15, No Iterations 0
nonDiag.size()=64

U.size()=64

F.size()=64

F = normalisedF;

Selected 0 cells for refinement out of 64.
Selected 0 split points out of a possible 8.
mesh updated
Time = 0.66

DICPCG:  Solving for T, Initial residual = 0.00392069, Final residual = 4.95492e-15, No Iterations 1
DICPCG:  Solving for T, Initial residual = 4.99225e-15, Final residual = 4.99225e-15, No Iterations 0
DICPCG:  Solving for T, Initial residual = 4.99225e-15, Final residual = 4.99225e-15, No Iterations 0
nonDiag.size()=64

U.size()=64

F.size()=64

F = normalisedF;

Selected 0 cells for refinement out of 64.
Selected 0 split points out of a possible 8.
mesh updated
Time = 0.665

DICPCG:  Solving for T, Initial residual = 0.00389065, Final residual = 4.91666e-15, No Iterations 1
DICPCG:  Solving for T, Initial residual = 4.96806e-15, Final residual = 4.96806e-15, No Iterations 0
DICPCG:  Solving for T, Initial residual = 4.96806e-15, Final residual = 4.96806e-15, No Iterations 0
nonDiag.size()=64

U.size()=64

F.size()=64

F = normalisedF;

Selected 0 cells for refinement out of 64.
Selected 0 split points out of a possible 8.
mesh updated
Time = 0.67

DICPCG:  Solving for T, Initial residual = 0.00386108, Final residual = 4.88016e-15, No Iterations 1
DICPCG:  Solving for T, Initial residual = 4.93678e-15, Final residual = 4.93678e-15, No Iterations 0
DICPCG:  Solving for T, Initial residual = 4.93678e-15, Final residual = 4.93678e-15, No Iterations 0
nonDiag.size()=64

U.size()=64

F.size()=64

F = normalisedF;

Selected 0 cells for refinement out of 64.
Selected 0 split points out of a possible 8.
mesh updated
Time = 0.675

DICPCG:  Solving for T, Initial residual = 0.00383195, Final residual = 4.84302e-15, No Iterations 1
DICPCG:  Solving for T, Initial residual = 4.95307e-15, Final residual = 4.95307e-15, No Iterations 0
DICPCG:  Solving for T, Initial residual = 4.95307e-15, Final residual = 4.95307e-15, No Iterations 0
nonDiag.size()=64

U.size()=64

F.size()=64

F = normalisedF;

Selected 0 cells for refinement out of 64.
Selected 0 split points out of a possible 8.
mesh updated
Time = 0.68

DICPCG:  Solving for T, Initial residual = 0.00380326, Final residual = 4.80678e-15, No Iterations 1
DICPCG:  Solving for T, Initial residual = 4.85701e-15, Final residual = 4.85701e-15, No Iterations 0
DICPCG:  Solving for T, Initial residual = 4.85701e-15, Final residual = 4.85701e-15, No Iterations 0
nonDiag.size()=64

U.size()=64

F.size()=64

F = normalisedF;

Selected 0 cells for refinement out of 64.
Selected 0 split points out of a possible 8.
mesh updated
Time = 0.685

DICPCG:  Solving for T, Initial residual = 0.003775, Final residual = 4.77123e-15, No Iterations 1
DICPCG:  Solving for T, Initial residual = 4.83398e-15, Final residual = 4.83398e-15, No Iterations 0
DICPCG:  Solving for T, Initial residual = 4.83398e-15, Final residual = 4.83398e-15, No Iterations 0
nonDiag.size()=64

U.size()=64

F.size()=64

F = normalisedF;

Selected 0 cells for refinement out of 64.
Selected 0 split points out of a possible 8.
mesh updated
Time = 0.69

DICPCG:  Solving for T, Initial residual = 0.00374715, Final residual = 4.73566e-15, No Iterations 1
DICPCG:  Solving for T, Initial residual = 4.77181e-15, Final residual = 4.77181e-15, No Iterations 0
DICPCG:  Solving for T, Initial residual = 4.77181e-15, Final residual = 4.77181e-15, No Iterations 0
nonDiag.size()=64

U.size()=64

F.size()=64

F = normalisedF;

Selected 0 cells for refinement out of 64.
Selected 0 split points out of a possible 8.
mesh updated
Time = 0.695

DICPCG:  Solving for T, Initial residual = 0.00371971, Final residual = 4.70113e-15, No Iterations 1
DICPCG:  Solving for T, Initial residual = 4.78222e-15, Final residual = 4.78222e-15, No Iterations 0
DICPCG:  Solving for T, Initial residual = 4.78222e-15, Final residual = 4.78222e-15, No Iterations 0
nonDiag.size()=64

U.size()=64

F.size()=64

F = normalisedF;

Selected 0 cells for refinement out of 64.
Selected 0 split points out of a possible 8.
mesh updated
Time = 0.7

DICPCG:  Solving for T, Initial residual = 0.00369267, Final residual = 4.66707e-15, No Iterations 1
DICPCG:  Solving for T, Initial residual = 4.75467e-15, Final residual = 4.75467e-15, No Iterations 0
DICPCG:  Solving for T, Initial residual = 4.75467e-15, Final residual = 4.75467e-15, No Iterations 0
nonDiag.size()=64

U.size()=64

F.size()=64

F = normalisedF;

Selected 0 cells for refinement out of 64.
Selected 0 split points out of a possible 8.
mesh updated
Time = 0.705

DICPCG:  Solving for T, Initial residual = 0.00366602, Final residual = 4.63322e-15, No Iterations 1
DICPCG:  Solving for T, Initial residual = 4.70792e-15, Final residual = 4.70792e-15, No Iterations 0
DICPCG:  Solving for T, Initial residual = 4.70792e-15, Final residual = 4.70792e-15, No Iterations 0
nonDiag.size()=64

U.size()=64

F.size()=64

F = normalisedF;

Selected 0 cells for refinement out of 64.
Selected 0 split points out of a possible 8.
mesh updated
Time = 0.71

DICPCG:  Solving for T, Initial residual = 0.00363975, Final residual = 4.59988e-15, No Iterations 1
DICPCG:  Solving for T, Initial residual = 4.7054e-15, Final residual = 4.7054e-15, No Iterations 0
DICPCG:  Solving for T, Initial residual = 4.7054e-15, Final residual = 4.7054e-15, No Iterations 0
nonDiag.size()=64

U.size()=64

F.size()=64

F = normalisedF;

Selected 0 cells for refinement out of 64.
Selected 0 split points out of a possible 8.
mesh updated
Time = 0.715

DICPCG:  Solving for T, Initial residual = 0.00361385, Final residual = 4.56767e-15, No Iterations 1
DICPCG:  Solving for T, Initial residual = 4.6025e-15, Final residual = 4.6025e-15, No Iterations 0
DICPCG:  Solving for T, Initial residual = 4.6025e-15, Final residual = 4.6025e-15, No Iterations 0
nonDiag.size()=64

U.size()=64

F.size()=64

F = normalisedF;

Selected 0 cells for refinement out of 64.
Selected 0 split points out of a possible 8.
mesh updated
Time = 0.72

DICPCG:  Solving for T, Initial residual = 0.00358833, Final residual = 4.53574e-15, No Iterations 1
DICPCG:  Solving for T, Initial residual = 4.60195e-15, Final residual = 4.60195e-15, No Iterations 0
DICPCG:  Solving for T, Initial residual = 4.60195e-15, Final residual = 4.60195e-15, No Iterations 0
nonDiag.size()=64

U.size()=64

F.size()=64

F = normalisedF;

Selected 0 cells for refinement out of 64.
Selected 0 split points out of a possible 8.
mesh updated
Time = 0.725

DICPCG:  Solving for T, Initial residual = 0.00356316, Final residual = 4.50364e-15, No Iterations 1
DICPCG:  Solving for T, Initial residual = 4.55112e-15, Final residual = 4.55112e-15, No Iterations 0
DICPCG:  Solving for T, Initial residual = 4.55112e-15, Final residual = 4.55112e-15, No Iterations 0
nonDiag.size()=64

U.size()=64

F.size()=64

F = normalisedF;

Selected 0 cells for refinement out of 64.
Selected 0 split points out of a possible 8.
mesh updated
Time = 0.73

DICPCG:  Solving for T, Initial residual = 0.00353834, Final residual = 4.47258e-15, No Iterations 1
DICPCG:  Solving for T, Initial residual = 4.53146e-15, Final residual = 4.53146e-15, No Iterations 0
DICPCG:  Solving for T, Initial residual = 4.53146e-15, Final residual = 4.53146e-15, No Iterations 0
nonDiag.size()=64

U.size()=64

F.size()=64

F = normalisedF;

Selected 0 cells for refinement out of 64.
Selected 0 split points out of a possible 8.
mesh updated
Time = 0.735

DICPCG:  Solving for T, Initial residual = 0.00351386, Final residual = 4.4414e-15, No Iterations 1
DICPCG:  Solving for T, Initial residual = 4.49453e-15, Final residual = 4.49453e-15, No Iterations 0
DICPCG:  Solving for T, Initial residual = 4.49453e-15, Final residual = 4.49453e-15, No Iterations 0
nonDiag.size()=64

U.size()=64

F.size()=64

F = normalisedF;

Selected 0 cells for refinement out of 64.
Selected 0 split points out of a possible 8.
mesh updated
Time = 0.74

DICPCG:  Solving for T, Initial residual = 0.00348972, Final residual = 4.41107e-15, No Iterations 1
DICPCG:  Solving for T, Initial residual = 4.47044e-15, Final residual = 4.47044e-15, No Iterations 0
DICPCG:  Solving for T, Initial residual = 4.47044e-15, Final residual = 4.47044e-15, No Iterations 0
nonDiag.size()=64

U.size()=64

F.size()=64

F = normalisedF;

Selected 0 cells for refinement out of 64.
Selected 0 split points out of a possible 8.
mesh updated
Time = 0.745

DICPCG:  Solving for T, Initial residual = 0.00346591, Final residual = 4.38086e-15, No Iterations 1
DICPCG:  Solving for T, Initial residual = 4.42736e-15, Final residual = 4.42736e-15, No Iterations 0
DICPCG:  Solving for T, Initial residual = 4.42736e-15, Final residual = 4.42736e-15, No Iterations 0
nonDiag.size()=64

U.size()=64

F.size()=64

F = normalisedF;

Selected 0 cells for refinement out of 64.
Selected 0 split points out of a possible 8.
mesh updated
Time = 0.75

DICPCG:  Solving for T, Initial residual = 0.00344243, Final residual = 4.35114e-15, No Iterations 1
DICPCG:  Solving for T, Initial residual = 4.37325e-15, Final residual = 4.37325e-15, No Iterations 0
DICPCG:  Solving for T, Initial residual = 4.37325e-15, Final residual = 4.37325e-15, No Iterations 0
nonDiag.size()=64

U.size()=64

F.size()=64

F = normalisedF;

Selected 0 cells for refinement out of 64.
Selected 0 split points out of a possible 8.
mesh updated
Time = 0.755

DICPCG:  Solving for T, Initial residual = 0.00341926, Final residual = 4.32213e-15, No Iterations 1
DICPCG:  Solving for T, Initial residual = 4.3677e-15, Final residual = 4.3677e-15, No Iterations 0
DICPCG:  Solving for T, Initial residual = 4.3677e-15, Final residual = 4.3677e-15, No Iterations 0
nonDiag.size()=64

U.size()=64

F.size()=64

F = normalisedF;

Selected 0 cells for refinement out of 64.
Selected 0 split points out of a possible 8.
mesh updated
Time = 0.76

DICPCG:  Solving for T, Initial residual = 0.0033964, Final residual = 4.29277e-15, No Iterations 1
DICPCG:  Solving for T, Initial residual = 4.40895e-15, Final residual = 4.40895e-15, No Iterations 0
DICPCG:  Solving for T, Initial residual = 4.40895e-15, Final residual = 4.40895e-15, No Iterations 0
nonDiag.size()=64

U.size()=64

F.size()=64

F = normalisedF;

Selected 0 cells for refinement out of 64.
Selected 0 split points out of a possible 8.
mesh updated
Time = 0.765

DICPCG:  Solving for T, Initial residual = 0.00337384, Final residual = 4.26482e-15, No Iterations 1
DICPCG:  Solving for T, Initial residual = 4.28705e-15, Final residual = 4.28705e-15, No Iterations 0
DICPCG:  Solving for T, Initial residual = 4.28705e-15, Final residual = 4.28705e-15, No Iterations 0
nonDiag.size()=64

U.size()=64

F.size()=64

F = normalisedF;

Selected 0 cells for refinement out of 64.
Selected 0 split points out of a possible 8.
mesh updated
Time = 0.77

DICPCG:  Solving for T, Initial residual = 0.00335158, Final residual = 4.2363e-15, No Iterations 1
DICPCG:  Solving for T, Initial residual = 4.28145e-15, Final residual = 4.28145e-15, No Iterations 0
DICPCG:  Solving for T, Initial residual = 4.28145e-15, Final residual = 4.28145e-15, No Iterations 0
nonDiag.size()=64

U.size()=64

F.size()=64

F = normalisedF;

Selected 0 cells for refinement out of 64.
Selected 0 split points out of a possible 8.
mesh updated
Time = 0.775

DICPCG:  Solving for T, Initial residual = 0.00332961, Final residual = 4.20809e-15, No Iterations 1
DICPCG:  Solving for T, Initial residual = 4.23603e-15, Final residual = 4.23603e-15, No Iterations 0
DICPCG:  Solving for T, Initial residual = 4.23603e-15, Final residual = 4.23603e-15, No Iterations 0
nonDiag.size()=64

U.size()=64

F.size()=64

F = normalisedF;

Selected 0 cells for refinement out of 64.
Selected 0 split points out of a possible 8.
mesh updated
Time = 0.78

DICPCG:  Solving for T, Initial residual = 0.00330793, Final residual = 4.18086e-15, No Iterations 1
DICPCG:  Solving for T, Initial residual = 4.22698e-15, Final residual = 4.22698e-15, No Iterations 0
DICPCG:  Solving for T, Initial residual = 4.22698e-15, Final residual = 4.22698e-15, No Iterations 0
nonDiag.size()=64

U.size()=64

F.size()=64

F = normalisedF;

Selected 0 cells for refinement out of 64.
Selected 0 split points out of a possible 8.
mesh updated
Time = 0.785

DICPCG:  Solving for T, Initial residual = 0.00328653, Final residual = 4.15389e-15, No Iterations 1
DICPCG:  Solving for T, Initial residual = 4.18622e-15, Final residual = 4.18622e-15, No Iterations 0
DICPCG:  Solving for T, Initial residual = 4.18622e-15, Final residual = 4.18622e-15, No Iterations 0
nonDiag.size()=64

U.size()=64

F.size()=64

F = normalisedF;

Selected 0 cells for refinement out of 64.
Selected 0 split points out of a possible 8.
mesh updated
Time = 0.79

DICPCG:  Solving for T, Initial residual = 0.00326541, Final residual = 4.12792e-15, No Iterations 1
DICPCG:  Solving for T, Initial residual = 4.14364e-15, Final residual = 4.14364e-15, No Iterations 0
DICPCG:  Solving for T, Initial residual = 4.14364e-15, Final residual = 4.14364e-15, No Iterations 0
nonDiag.size()=64

U.size()=64

F.size()=64

F = normalisedF;

Selected 0 cells for refinement out of 64.
Selected 0 split points out of a possible 8.
mesh updated
Time = 0.795

DICPCG:  Solving for T, Initial residual = 0.00324455, Final residual = 4.10052e-15, No Iterations 1
DICPCG:  Solving for T, Initial residual = 4.14554e-15, Final residual = 4.14554e-15, No Iterations 0
DICPCG:  Solving for T, Initial residual = 4.14554e-15, Final residual = 4.14554e-15, No Iterations 0
nonDiag.size()=64

U.size()=64

F.size()=64

F = normalisedF;

Selected 0 cells for refinement out of 64.
Selected 0 split points out of a possible 8.
mesh updated
Time = 0.8

DICPCG:  Solving for T, Initial residual = 0.00322396, Final residual = 4.07472e-15, No Iterations 1
DICPCG:  Solving for T, Initial residual = 4.16912e-15, Final residual = 4.16912e-15, No Iterations 0
DICPCG:  Solving for T, Initial residual = 4.16912e-15, Final residual = 4.16912e-15, No Iterations 0
nonDiag.size()=64

U.size()=64

F.size()=64

F = normalisedF;

Selected 0 cells for refinement out of 64.
Selected 0 split points out of a possible 8.
mesh updated
Time = 0.805

DICPCG:  Solving for T, Initial residual = 0.00320363, Final residual = 4.04985e-15, No Iterations 1
DICPCG:  Solving for T, Initial residual = 4.09875e-15, Final residual = 4.09875e-15, No Iterations 0
DICPCG:  Solving for T, Initial residual = 4.09875e-15, Final residual = 4.09875e-15, No Iterations 0
nonDiag.size()=64

U.size()=64

F.size()=64

F = normalisedF;

Selected 0 cells for refinement out of 64.
Selected 0 split points out of a possible 8.
mesh updated
Time = 0.81

DICPCG:  Solving for T, Initial residual = 0.00318356, Final residual = 4.02396e-15, No Iterations 1
DICPCG:  Solving for T, Initial residual = 4.12849e-15, Final residual = 4.12849e-15, No Iterations 0
DICPCG:  Solving for T, Initial residual = 4.12849e-15, Final residual = 4.12849e-15, No Iterations 0
[...]

F.size()=64

F = normalisedF;

Selected 0 cells for refinement out of 64.
Selected 0 split points out of a possible 8.
mesh updated
Time = 9.8

DICPCG:  Solving for T, Initial residual = 0.000260896, Final residual = 3.32521e-16, No Iterations 1
DICPCG:  Solving for T, Initial residual = 3.82315e-16, Final residual = 3.82315e-16, No Iterations 0
DICPCG:  Solving for T, Initial residual = 3.82315e-16, Final residual = 3.82315e-16, No Iterations 0
nonDiag.size()=64

U.size()=64

F.size()=64

F = normalisedF;

Selected 0 cells for refinement out of 64.
Selected 0 split points out of a possible 8.
mesh updated
Time = 9.805

DICPCG:  Solving for T, Initial residual = 0.000260764, Final residual = 3.32348e-16, No Iterations 1
DICPCG:  Solving for T, Initial residual = 3.64186e-16, Final residual = 3.64186e-16, No Iterations 0
DICPCG:  Solving for T, Initial residual = 3.64186e-16, Final residual = 3.64186e-16, No Iterations 0
nonDiag.size()=64

U.size()=64

F.size()=64

F = normalisedF;

Selected 0 cells for refinement out of 64.
Selected 0 split points out of a possible 8.
mesh updated
Time = 9.81

DICPCG:  Solving for T, Initial residual = 0.000260631, Final residual = 3.32174e-16, No Iterations 1
DICPCG:  Solving for T, Initial residual = 3.63367e-16, Final residual = 3.63367e-16, No Iterations 0
DICPCG:  Solving for T, Initial residual = 3.63367e-16, Final residual = 3.63367e-16, No Iterations 0
nonDiag.size()=64

U.size()=64

F.size()=64

F = normalisedF;

Selected 0 cells for refinement out of 64.
Selected 0 split points out of a possible 8.
mesh updated
Time = 9.815

DICPCG:  Solving for T, Initial residual = 0.000260499, Final residual = 3.32032e-16, No Iterations 1
DICPCG:  Solving for T, Initial residual = 3.63831e-16, Final residual = 3.63831e-16, No Iterations 0
DICPCG:  Solving for T, Initial residual = 3.63831e-16, Final residual = 3.63831e-16, No Iterations 0
nonDiag.size()=64

U.size()=64

F.size()=64

F = normalisedF;

Selected 0 cells for refinement out of 64.
Selected 0 split points out of a possible 8.
mesh updated
Time = 9.82

DICPCG:  Solving for T, Initial residual = 0.000260367, Final residual = 3.31915e-16, No Iterations 1
DICPCG:  Solving for T, Initial residual = 3.64138e-16, Final residual = 3.64138e-16, No Iterations 0
DICPCG:  Solving for T, Initial residual = 3.64138e-16, Final residual = 3.64138e-16, No Iterations 0
nonDiag.size()=64

U.size()=64

F.size()=64

F = normalisedF;

Selected 0 cells for refinement out of 64.
Selected 0 split points out of a possible 8.
mesh updated
Time = 9.825

DICPCG:  Solving for T, Initial residual = 0.000260236, Final residual = 3.31689e-16, No Iterations 1
DICPCG:  Solving for T, Initial residual = 3.70427e-16, Final residual = 3.70427e-16, No Iterations 0
DICPCG:  Solving for T, Initial residual = 3.70427e-16, Final residual = 3.70427e-16, No Iterations 0
nonDiag.size()=64

U.size()=64

F.size()=64

F = normalisedF;

Selected 0 cells for refinement out of 64.
Selected 0 split points out of a possible 8.
mesh updated
Time = 9.83

DICPCG:  Solving for T, Initial residual = 0.000260104, Final residual = 3.31504e-16, No Iterations 1
DICPCG:  Solving for T, Initial residual = 3.9214e-16, Final residual = 3.9214e-16, No Iterations 0
DICPCG:  Solving for T, Initial residual = 3.9214e-16, Final residual = 3.9214e-16, No Iterations 0
nonDiag.size()=64

U.size()=64

F.size()=64

F = normalisedF;

Selected 0 cells for refinement out of 64.
Selected 0 split points out of a possible 8.
mesh updated
Time = 9.835

DICPCG:  Solving for T, Initial residual = 0.000259972, Final residual = 3.31329e-16, No Iterations 1
DICPCG:  Solving for T, Initial residual = 3.81303e-16, Final residual = 3.81303e-16, No Iterations 0
DICPCG:  Solving for T, Initial residual = 3.81303e-16, Final residual = 3.81303e-16, No Iterations 0
nonDiag.size()=64

U.size()=64

F.size()=64

F = normalisedF;

Selected 0 cells for refinement out of 64.
Selected 0 split points out of a possible 8.
mesh updated
Time = 9.84

DICPCG:  Solving for T, Initial residual = 0.000259841, Final residual = 3.31189e-16, No Iterations 1
DICPCG:  Solving for T, Initial residual = 3.55055e-16, Final residual = 3.55055e-16, No Iterations 0
DICPCG:  Solving for T, Initial residual = 3.55055e-16, Final residual = 3.55055e-16, No Iterations 0
nonDiag.size()=64

U.size()=64

F.size()=64

F = normalisedF;

Selected 0 cells for refinement out of 64.
Selected 0 split points out of a possible 8.
mesh updated
Time = 9.845

DICPCG:  Solving for T, Initial residual = 0.000259709, Final residual = 3.31019e-16, No Iterations 1
DICPCG:  Solving for T, Initial residual = 3.73498e-16, Final residual = 3.73498e-16, No Iterations 0
DICPCG:  Solving for T, Initial residual = 3.73498e-16, Final residual = 3.73498e-16, No Iterations 0
nonDiag.size()=64

U.size()=64

F.size()=64

F = normalisedF;

Selected 0 cells for refinement out of 64.
Selected 0 split points out of a possible 8.
mesh updated
Time = 9.85

DICPCG:  Solving for T, Initial residual = 0.000259578, Final residual = 3.30844e-16, No Iterations 1
DICPCG:  Solving for T, Initial residual = 3.69691e-16, Final residual = 3.69691e-16, No Iterations 0
DICPCG:  Solving for T, Initial residual = 3.69691e-16, Final residual = 3.69691e-16, No Iterations 0
nonDiag.size()=64

U.size()=64

F.size()=64

F = normalisedF;

Selected 0 cells for refinement out of 64.
Selected 0 split points out of a possible 8.
mesh updated
Time = 9.855

DICPCG:  Solving for T, Initial residual = 0.000259447, Final residual = 3.30699e-16, No Iterations 1
DICPCG:  Solving for T, Initial residual = 4.0201e-16, Final residual = 4.0201e-16, No Iterations 0
DICPCG:  Solving for T, Initial residual = 4.0201e-16, Final residual = 4.0201e-16, No Iterations 0
nonDiag.size()=64

U.size()=64

F.size()=64

F = normalisedF;

Selected 0 cells for refinement out of 64.
Selected 0 split points out of a possible 8.
mesh updated
Time = 9.86

DICPCG:  Solving for T, Initial residual = 0.000259316, Final residual = 3.30555e-16, No Iterations 1
DICPCG:  Solving for T, Initial residual = 3.94853e-16, Final residual = 3.94853e-16, No Iterations 0
DICPCG:  Solving for T, Initial residual = 3.94853e-16, Final residual = 3.94853e-16, No Iterations 0
nonDiag.size()=64

U.size()=64

F.size()=64

F = normalisedF;

Selected 0 cells for refinement out of 64.
Selected 0 split points out of a possible 8.
mesh updated
Time = 9.865

DICPCG:  Solving for T, Initial residual = 0.000259186, Final residual = 3.30359e-16, No Iterations 1
DICPCG:  Solving for T, Initial residual = 3.61656e-16, Final residual = 3.61656e-16, No Iterations 0
DICPCG:  Solving for T, Initial residual = 3.61656e-16, Final residual = 3.61656e-16, No Iterations 0
nonDiag.size()=64

U.size()=64

F.size()=64

F = normalisedF;

Selected 0 cells for refinement out of 64.
Selected 0 split points out of a possible 8.
mesh updated
Time = 9.87

DICPCG:  Solving for T, Initial residual = 0.000259055, Final residual = 3.30204e-16, No Iterations 1
DICPCG:  Solving for T, Initial residual = 3.86976e-16, Final residual = 3.86976e-16, No Iterations 0
DICPCG:  Solving for T, Initial residual = 3.86976e-16, Final residual = 3.86976e-16, No Iterations 0
nonDiag.size()=64

U.size()=64

F.size()=64

F = normalisedF;

Selected 0 cells for refinement out of 64.
Selected 0 split points out of a possible 8.
mesh updated
Time = 9.875

DICPCG:  Solving for T, Initial residual = 0.000258924, Final residual = 3.30036e-16, No Iterations 1
DICPCG:  Solving for T, Initial residual = 3.72136e-16, Final residual = 3.72136e-16, No Iterations 0
DICPCG:  Solving for T, Initial residual = 3.72136e-16, Final residual = 3.72136e-16, No Iterations 0
nonDiag.size()=64

U.size()=64

F.size()=64

F = normalisedF;

Selected 0 cells for refinement out of 64.
Selected 0 split points out of a possible 8.
mesh updated
Time = 9.88

DICPCG:  Solving for T, Initial residual = 0.000258794, Final residual = 3.29872e-16, No Iterations 1
DICPCG:  Solving for T, Initial residual = 3.79335e-16, Final residual = 3.79335e-16, No Iterations 0
DICPCG:  Solving for T, Initial residual = 3.79335e-16, Final residual = 3.79335e-16, No Iterations 0
nonDiag.size()=64

U.size()=64

F.size()=64

F = normalisedF;

Selected 0 cells for refinement out of 64.
Selected 0 split points out of a possible 8.
mesh updated
Time = 9.885

DICPCG:  Solving for T, Initial residual = 0.000258664, Final residual = 3.29694e-16, No Iterations 1
DICPCG:  Solving for T, Initial residual = 4.04296e-16, Final residual = 4.04296e-16, No Iterations 0
DICPCG:  Solving for T, Initial residual = 4.04296e-16, Final residual = 4.04296e-16, No Iterations 0
nonDiag.size()=64

U.size()=64

F.size()=64

F = normalisedF;

Selected 0 cells for refinement out of 64.
Selected 0 split points out of a possible 8.
mesh updated
Time = 9.89

DICPCG:  Solving for T, Initial residual = 0.000258534, Final residual = 3.29566e-16, No Iterations 1
DICPCG:  Solving for T, Initial residual = 3.92969e-16, Final residual = 3.92969e-16, No Iterations 0
DICPCG:  Solving for T, Initial residual = 3.92969e-16, Final residual = 3.92969e-16, No Iterations 0
nonDiag.size()=64

U.size()=64

F.size()=64

F = normalisedF;

Selected 0 cells for refinement out of 64.
Selected 0 split points out of a possible 8.
mesh updated
Time = 9.895

DICPCG:  Solving for T, Initial residual = 0.000258404, Final residual = 3.29343e-16, No Iterations 1
DICPCG:  Solving for T, Initial residual = 3.86039e-16, Final residual = 3.86039e-16, No Iterations 0
DICPCG:  Solving for T, Initial residual = 3.86039e-16, Final residual = 3.86039e-16, No Iterations 0
nonDiag.size()=64

U.size()=64

F.size()=64

F = normalisedF;

Selected 0 cells for refinement out of 64.
Selected 0 split points out of a possible 8.
mesh updated
Time = 9.9

DICPCG:  Solving for T, Initial residual = 0.000258274, Final residual = 3.29215e-16, No Iterations 1
DICPCG:  Solving for T, Initial residual = 3.67932e-16, Final residual = 3.67932e-16, No Iterations 0
DICPCG:  Solving for T, Initial residual = 3.67932e-16, Final residual = 3.67932e-16, No Iterations 0
nonDiag.size()=64

U.size()=64

F.size()=64

F = normalisedF;

Selected 0 cells for refinement out of 64.
Selected 0 split points out of a possible 8.
mesh updated
Time = 9.905

DICPCG:  Solving for T, Initial residual = 0.000258144, Final residual = 3.29044e-16, No Iterations 1
DICPCG:  Solving for T, Initial residual = 3.74579e-16, Final residual = 3.74579e-16, No Iterations 0
DICPCG:  Solving for T, Initial residual = 3.74579e-16, Final residual = 3.74579e-16, No Iterations 0
nonDiag.size()=64

U.size()=64

F.size()=64

F = normalisedF;

Selected 0 cells for refinement out of 64.
Selected 0 split points out of a possible 8.
mesh updated
Time = 9.91

DICPCG:  Solving for T, Initial residual = 0.000258015, Final residual = 3.28917e-16, No Iterations 1
DICPCG:  Solving for T, Initial residual = 4.10667e-16, Final residual = 4.10667e-16, No Iterations 0
DICPCG:  Solving for T, Initial residual = 4.10667e-16, Final residual = 4.10667e-16, No Iterations 0
nonDiag.size()=64

U.size()=64

F.size()=64

F = normalisedF;

Selected 0 cells for refinement out of 64.
Selected 0 split points out of a possible 8.
mesh updated
Time = 9.915

DICPCG:  Solving for T, Initial residual = 0.000257885, Final residual = 3.28726e-16, No Iterations 1
DICPCG:  Solving for T, Initial residual = 4.02875e-16, Final residual = 4.02875e-16, No Iterations 0
DICPCG:  Solving for T, Initial residual = 4.02875e-16, Final residual = 4.02875e-16, No Iterations 0
nonDiag.size()=64

U.size()=64

F.size()=64

F = normalisedF;

Selected 0 cells for refinement out of 64.
Selected 0 split points out of a possible 8.
mesh updated
Time = 9.92

DICPCG:  Solving for T, Initial residual = 0.000257756, Final residual = 3.28581e-16, No Iterations 1
DICPCG:  Solving for T, Initial residual = 4.49828e-16, Final residual = 4.49828e-16, No Iterations 0
DICPCG:  Solving for T, Initial residual = 4.49828e-16, Final residual = 4.49828e-16, No Iterations 0
nonDiag.size()=64

U.size()=64

F.size()=64

F = normalisedF;

Selected 0 cells for refinement out of 64.
Selected 0 split points out of a possible 8.
mesh updated
Time = 9.925

DICPCG:  Solving for T, Initial residual = 0.000257627, Final residual = 3.28384e-16, No Iterations 1
DICPCG:  Solving for T, Initial residual = 4.20874e-16, Final residual = 4.20874e-16, No Iterations 0
DICPCG:  Solving for T, Initial residual = 4.20874e-16, Final residual = 4.20874e-16, No Iterations 0
nonDiag.size()=64

U.size()=64

F.size()=64

F = normalisedF;

Selected 0 cells for refinement out of 64.
Selected 0 split points out of a possible 8.
mesh updated
Time = 9.93

DICPCG:  Solving for T, Initial residual = 0.000257498, Final residual = 3.28215e-16, No Iterations 1
DICPCG:  Solving for T, Initial residual = 3.95378e-16, Final residual = 3.95378e-16, No Iterations 0
DICPCG:  Solving for T, Initial residual = 3.95378e-16, Final residual = 3.95378e-16, No Iterations 0
nonDiag.size()=64

U.size()=64

F.size()=64

F = normalisedF;

Selected 0 cells for refinement out of 64.
Selected 0 split points out of a possible 8.
mesh updated
Time = 9.935

DICPCG:  Solving for T, Initial residual = 0.000257369, Final residual = 3.28081e-16, No Iterations 1
DICPCG:  Solving for T, Initial residual = 3.91205e-16, Final residual = 3.91205e-16, No Iterations 0
DICPCG:  Solving for T, Initial residual = 3.91205e-16, Final residual = 3.91205e-16, No Iterations 0
nonDiag.size()=64

U.size()=64

F.size()=64

F = normalisedF;

Selected 0 cells for refinement out of 64.
Selected 0 split points out of a possible 8.
mesh updated
Time = 9.94

DICPCG:  Solving for T, Initial residual = 0.00025724, Final residual = 3.27906e-16, No Iterations 1
DICPCG:  Solving for T, Initial residual = 3.41284e-16, Final residual = 3.41284e-16, No Iterations 0
DICPCG:  Solving for T, Initial residual = 3.41284e-16, Final residual = 3.41284e-16, No Iterations 0
nonDiag.size()=64

U.size()=64

F.size()=64

F = normalisedF;

Selected 0 cells for refinement out of 64.
Selected 0 split points out of a possible 8.
mesh updated
Time = 9.945

DICPCG:  Solving for T, Initial residual = 0.000257111, Final residual = 3.27724e-16, No Iterations 1
DICPCG:  Solving for T, Initial residual = 3.66044e-16, Final residual = 3.66044e-16, No Iterations 0
DICPCG:  Solving for T, Initial residual = 3.66044e-16, Final residual = 3.66044e-16, No Iterations 0
nonDiag.size()=64

U.size()=64

F.size()=64

F = normalisedF;

Selected 0 cells for refinement out of 64.
Selected 0 split points out of a possible 8.
mesh updated
Time = 9.95

DICPCG:  Solving for T, Initial residual = 0.000256983, Final residual = 3.27596e-16, No Iterations 1
DICPCG:  Solving for T, Initial residual = 3.51249e-16, Final residual = 3.51249e-16, No Iterations 0
DICPCG:  Solving for T, Initial residual = 3.51249e-16, Final residual = 3.51249e-16, No Iterations 0
nonDiag.size()=64

U.size()=64

F.size()=64

F = normalisedF;

Selected 0 cells for refinement out of 64.
Selected 0 split points out of a possible 8.
mesh updated
Time = 9.955

DICPCG:  Solving for T, Initial residual = 0.000256854, Final residual = 3.27457e-16, No Iterations 1
DICPCG:  Solving for T, Initial residual = 3.69534e-16, Final residual = 3.69534e-16, No Iterations 0
DICPCG:  Solving for T, Initial residual = 3.69534e-16, Final residual = 3.69534e-16, No Iterations 0
nonDiag.size()=64

U.size()=64

F.size()=64

F = normalisedF;

Selected 0 cells for refinement out of 64.
Selected 0 split points out of a possible 8.
mesh updated
Time = 9.96

DICPCG:  Solving for T, Initial residual = 0.000256726, Final residual = 3.27284e-16, No Iterations 1
DICPCG:  Solving for T, Initial residual = 3.83428e-16, Final residual = 3.83428e-16, No Iterations 0
DICPCG:  Solving for T, Initial residual = 3.83428e-16, Final residual = 3.83428e-16, No Iterations 0
nonDiag.size()=64

U.size()=64

F.size()=64

F = normalisedF;

Selected 0 cells for refinement out of 64.
Selected 0 split points out of a possible 8.
mesh updated
Time = 9.965

DICPCG:  Solving for T, Initial residual = 0.000256598, Final residual = 3.27093e-16, No Iterations 1
DICPCG:  Solving for T, Initial residual = 3.90742e-16, Final residual = 3.90742e-16, No Iterations 0
DICPCG:  Solving for T, Initial residual = 3.90742e-16, Final residual = 3.90742e-16, No Iterations 0
nonDiag.size()=64

U.size()=64

F.size()=64

F = normalisedF;

Selected 0 cells for refinement out of 64.
Selected 0 split points out of a possible 8.
mesh updated
Time = 9.97

DICPCG:  Solving for T, Initial residual = 0.00025647, Final residual = 3.26948e-16, No Iterations 1
DICPCG:  Solving for T, Initial residual = 3.97236e-16, Final residual = 3.97236e-16, No Iterations 0
DICPCG:  Solving for T, Initial residual = 3.97236e-16, Final residual = 3.97236e-16, No Iterations 0
nonDiag.size()=64

U.size()=64

F.size()=64

F = normalisedF;

Selected 0 cells for refinement out of 64.
Selected 0 split points out of a possible 8.
mesh updated
Time = 9.975

DICPCG:  Solving for T, Initial residual = 0.000256342, Final residual = 3.26772e-16, No Iterations 1
DICPCG:  Solving for T, Initial residual = 3.72069e-16, Final residual = 3.72069e-16, No Iterations 0
DICPCG:  Solving for T, Initial residual = 3.72069e-16, Final residual = 3.72069e-16, No Iterations 0
nonDiag.size()=64

U.size()=64

F.size()=64

F = normalisedF;

Selected 0 cells for refinement out of 64.
Selected 0 split points out of a possible 8.
mesh updated
Time = 9.98

DICPCG:  Solving for T, Initial residual = 0.000256214, Final residual = 3.26634e-16, No Iterations 1
DICPCG:  Solving for T, Initial residual = 3.89563e-16, Final residual = 3.89563e-16, No Iterations 0
DICPCG:  Solving for T, Initial residual = 3.89563e-16, Final residual = 3.89563e-16, No Iterations 0
nonDiag.size()=64

U.size()=64

F.size()=64

F = normalisedF;

Selected 0 cells for refinement out of 64.
Selected 0 split points out of a possible 8.
mesh updated
Time = 9.985

DICPCG:  Solving for T, Initial residual = 0.000256086, Final residual = 3.26433e-16, No Iterations 1
DICPCG:  Solving for T, Initial residual = 3.82361e-16, Final residual = 3.82361e-16, No Iterations 0
DICPCG:  Solving for T, Initial residual = 3.82361e-16, Final residual = 3.82361e-16, No Iterations 0
nonDiag.size()=64

U.size()=64

F.size()=64

F = normalisedF;

Selected 0 cells for refinement out of 64.
Selected 0 split points out of a possible 8.
mesh updated
Time = 9.99

DICPCG:  Solving for T, Initial residual = 0.000255959, Final residual = 3.26288e-16, No Iterations 1
DICPCG:  Solving for T, Initial residual = 3.86166e-16, Final residual = 3.86166e-16, No Iterations 0
DICPCG:  Solving for T, Initial residual = 3.86166e-16, Final residual = 3.86166e-16, No Iterations 0
nonDiag.size()=64

U.size()=64

F.size()=64

F = normalisedF;

Selected 0 cells for refinement out of 64.
Selected 0 split points out of a possible 8.
mesh updated
Time = 9.995

DICPCG:  Solving for T, Initial residual = 0.000255832, Final residual = 3.26161e-16, No Iterations 1
DICPCG:  Solving for T, Initial residual = 3.96073e-16, Final residual = 3.96073e-16, No Iterations 0
DICPCG:  Solving for T, Initial residual = 3.96073e-16, Final residual = 3.96073e-16, No Iterations 0
nonDiag.size()=64

U.size()=64

F.size()=64

F = normalisedF;

Selected 0 cells for refinement out of 64.
Selected 0 split points out of a possible 8.
mesh updated
Time = 10

DICPCG:  Solving for T, Initial residual = 0.000255704, Final residual = 3.26009e-16, No Iterations 1
DICPCG:  Solving for T, Initial residual = 3.99846e-16, Final residual = 3.99846e-16, No Iterations 0
DICPCG:  Solving for T, Initial residual = 3.99846e-16, Final residual = 3.99846e-16, No Iterations 0
nonDiag.size()=64

U.size()=64

F.size()=64

F = normalisedF;

Selected 0 cells for refinement out of 64.
Selected 0 split points out of a possible 8.
mesh updated
ExecutionTime = 4.34 s  ClockTime = 10 s

End

