/*---------------------------------------------------------------------------*\
| =========                 |                                                 |
| \\      /  F ield         | OpenFOAM: The Open Source CFD Toolbox           |
|  \\    /   O peration     | Version:  2.3.0                                 |
|   \\  /    A nd           | Web:      www.OpenFOAM.org                      |
|    \\/     M anipulation  |                                                 |
\*---------------------------------------------------------------------------*/
Build  : 2.3.0-f5222ca19ce6
Exec   : laplacianFoamF
Date   : Dec 02 2014
Time   : 00:24:14
Host   : "debian-toshiba"
PID    : 24463
Case   : /home/jenek/laplacianFoamF/laplacianFoamF/case5cells
nProcs : 1
sigFpe : Enabling floating point exception trapping (FOAM_SIGFPE).
fileModificationChecking : Monitoring run-time modified files using timeStampMaster
allowSystemOperations : Disallowing user-supplied system call operations

// * * * * * * * * * * * * * * * * * * * * * * * * * * * * * * * * * * * * * //
Create time

Create mesh for time = 0

Selecting dynamicFvMesh dynamicRefineFvMesh

SIMPLE: convergence criteria
field T	 tolerance 0.0001

Reading field T

Reading transportProperties

Reading diffusivity DT


Starting time loop

Time = 0.005

DICPCG:  Solving for T, Initial residual = 1, Final residual = 4.13587e-15, No Iterations 1
DICPCG:  Solving for T, Initial residual = 1.75819e-15, Final residual = 1.75819e-15, No Iterations 0
DICPCG:  Solving for T, Initial residual = 1.75819e-15, Final residual = 1.75819e-15, No Iterations 0
nonDiag.size()=125

U.size()=125

F.size()=125

F = normalisedF;

Selected 0 cells for refinement out of 125.
Selected 0 split points out of a possible 0.
mesh updated
Time = 0.01

DICPCG:  Solving for T, Initial residual = 0.29881, Final residual = 1.23897e-15, No Iterations 1
DICPCG:  Solving for T, Initial residual = 8.84336e-16, Final residual = 8.84336e-16, No Iterations 0
DICPCG:  Solving for T, Initial residual = 8.84336e-16, Final residual = 8.84336e-16, No Iterations 0
nonDiag.size()=125

U.size()=125

F.size()=125

F = normalisedF;

Selected 0 cells for refinement out of 125.
Selected 0 split points out of a possible 0.
mesh updated
Time = 0.015

DICPCG:  Solving for T, Initial residual = 0.175101, Final residual = 7.15981e-16, No Iterations 1
DICPCG:  Solving for T, Initial residual = 5.9148e-16, Final residual = 5.9148e-16, No Iterations 0
DICPCG:  Solving for T, Initial residual = 5.9148e-16, Final residual = 5.9148e-16, No Iterations 0
nonDiag.size()=125

U.size()=125

F.size()=125

F = normalisedF;

Selected 0 cells for refinement out of 125.
Selected 0 split points out of a possible 0.
mesh updated
Time = 0.02

DICPCG:  Solving for T, Initial residual = 0.123833, Final residual = 5.05719e-16, No Iterations 1
DICPCG:  Solving for T, Initial residual = 4.97755e-16, Final residual = 4.97755e-16, No Iterations 0
DICPCG:  Solving for T, Initial residual = 4.97755e-16, Final residual = 4.97755e-16, No Iterations 0
nonDiag.size()=125

U.size()=125

F.size()=125

F = normalisedF;

Selected 0 cells for refinement out of 125.
Selected 0 split points out of a possible 0.
mesh updated
Time = 0.025

DICPCG:  Solving for T, Initial residual = 0.0957881, Final residual = 3.97475e-16, No Iterations 1
DICPCG:  Solving for T, Initial residual = 3.94149e-16, Final residual = 3.94149e-16, No Iterations 0
DICPCG:  Solving for T, Initial residual = 3.94149e-16, Final residual = 3.94149e-16, No Iterations 0
nonDiag.size()=125

U.size()=125

F.size()=125

F = normalisedF;

Selected 0 cells for refinement out of 125.
Selected 0 split points out of a possible 0.
mesh updated
Time = 0.03

DICPCG:  Solving for T, Initial residual = 0.0781004, Final residual = 3.22167e-16, No Iterations 1
DICPCG:  Solving for T, Initial residual = 3.35642e-16, Final residual = 3.35642e-16, No Iterations 0
DICPCG:  Solving for T, Initial residual = 3.35642e-16, Final residual = 3.35642e-16, No Iterations 0
nonDiag.size()=125

U.size()=125

F.size()=125

F = normalisedF;

Selected 0 cells for refinement out of 125.
Selected 0 split points out of a possible 0.
mesh updated
Time = 0.035

DICPCG:  Solving for T, Initial residual = 0.0659268, Final residual = 2.71526e-16, No Iterations 1
DICPCG:  Solving for T, Initial residual = 2.82454e-16, Final residual = 2.82454e-16, No Iterations 0
DICPCG:  Solving for T, Initial residual = 2.82454e-16, Final residual = 2.82454e-16, No Iterations 0
nonDiag.size()=125

U.size()=125

F.size()=125

F = normalisedF;

Selected 0 cells for refinement out of 125.
Selected 0 split points out of a possible 0.
mesh updated
Time = 0.04

DICPCG:  Solving for T, Initial residual = 0.0570365, Final residual = 2.38083e-16, No Iterations 1
DICPCG:  Solving for T, Initial residual = 2.80826e-16, Final residual = 2.80826e-16, No Iterations 0
DICPCG:  Solving for T, Initial residual = 2.80826e-16, Final residual = 2.80826e-16, No Iterations 0
nonDiag.size()=125

U.size()=125

F.size()=125

F = normalisedF;

Selected 0 cells for refinement out of 125.
Selected 0 split points out of a possible 0.
mesh updated
Time = 0.045

DICPCG:  Solving for T, Initial residual = 0.0502591, Final residual = 2.06947e-16, No Iterations 1
DICPCG:  Solving for T, Initial residual = 2.71591e-16, Final residual = 2.71591e-16, No Iterations 0
DICPCG:  Solving for T, Initial residual = 2.71591e-16, Final residual = 2.71591e-16, No Iterations 0
nonDiag.size()=125

U.size()=125

F.size()=125

F = normalisedF;

Selected 0 cells for refinement out of 125.
Selected 0 split points out of a possible 0.
mesh updated
Time = 0.05

DICPCG:  Solving for T, Initial residual = 0.0449213, Final residual = 1.82756e-16, No Iterations 1
DICPCG:  Solving for T, Initial residual = 2.42246e-16, Final residual = 2.42246e-16, No Iterations 0
DICPCG:  Solving for T, Initial residual = 2.42246e-16, Final residual = 2.42246e-16, No Iterations 0
nonDiag.size()=125

U.size()=125

F.size()=125

F = normalisedF;

Selected 0 cells for refinement out of 125.
Selected 0 split points out of a possible 0.
mesh updated
Time = 0.055

DICPCG:  Solving for T, Initial residual = 0.0406085, Final residual = 1.66317e-16, No Iterations 1
DICPCG:  Solving for T, Initial residual = 1.7155e-16, Final residual = 1.7155e-16, No Iterations 0
DICPCG:  Solving for T, Initial residual = 1.7155e-16, Final residual = 1.7155e-16, No Iterations 0
nonDiag.size()=125

U.size()=125

F.size()=125

F = normalisedF;

Selected 0 cells for refinement out of 125.
Selected 0 split points out of a possible 0.
mesh updated
Time = 0.06

DICPCG:  Solving for T, Initial residual = 0.0370513, Final residual = 1.51881e-16, No Iterations 1
DICPCG:  Solving for T, Initial residual = 1.91635e-16, Final residual = 1.91635e-16, No Iterations 0
DICPCG:  Solving for T, Initial residual = 1.91635e-16, Final residual = 1.91635e-16, No Iterations 0
nonDiag.size()=125

U.size()=125

F.size()=125

F = normalisedF;

Selected 0 cells for refinement out of 125.
Selected 0 split points out of a possible 0.
mesh updated
Time = 0.065

DICPCG:  Solving for T, Initial residual = 0.0340672, Final residual = 1.41109e-16, No Iterations 1
DICPCG:  Solving for T, Initial residual = 1.69246e-16, Final residual = 1.69246e-16, No Iterations 0
DICPCG:  Solving for T, Initial residual = 1.69246e-16, Final residual = 1.69246e-16, No Iterations 0
nonDiag.size()=125

U.size()=125

F.size()=125

F = normalisedF;

Selected 0 cells for refinement out of 125.
Selected 0 split points out of a possible 0.
mesh updated
Time = 0.07

DICPCG:  Solving for T, Initial residual = 0.0315279, Final residual = 1.30072e-16, No Iterations 1
DICPCG:  Solving for T, Initial residual = 2.2339e-16, Final residual = 2.2339e-16, No Iterations 0
DICPCG:  Solving for T, Initial residual = 2.2339e-16, Final residual = 2.2339e-16, No Iterations 0
nonDiag.size()=125

U.size()=125

F.size()=125

F = normalisedF;

Selected 0 cells for refinement out of 125.
Selected 0 split points out of a possible 0.
mesh updated
Time = 0.075

DICPCG:  Solving for T, Initial residual = 0.0293409, Final residual = 1.20866e-16, No Iterations 1
DICPCG:  Solving for T, Initial residual = 2.14436e-16, Final residual = 2.14436e-16, No Iterations 0
DICPCG:  Solving for T, Initial residual = 2.14436e-16, Final residual = 2.14436e-16, No Iterations 0
nonDiag.size()=125

U.size()=125

F.size()=125

F = normalisedF;

Selected 0 cells for refinement out of 125.
Selected 0 split points out of a possible 0.
mesh updated
Time = 0.08

DICPCG:  Solving for T, Initial residual = 0.0274377, Final residual = 1.11797e-16, No Iterations 1
DICPCG:  Solving for T, Initial residual = 1.88161e-16, Final residual = 1.88161e-16, No Iterations 0
DICPCG:  Solving for T, Initial residual = 1.88161e-16, Final residual = 1.88161e-16, No Iterations 0
nonDiag.size()=125

U.size()=125

F.size()=125

F = normalisedF;

Selected 0 cells for refinement out of 125.
Selected 0 split points out of a possible 0.
mesh updated
Time = 0.085

DICPCG:  Solving for T, Initial residual = 0.0257663, Final residual = 1.05934e-16, No Iterations 1
DICPCG:  Solving for T, Initial residual = 1.46839e-16, Final residual = 1.46839e-16, No Iterations 0
DICPCG:  Solving for T, Initial residual = 1.46839e-16, Final residual = 1.46839e-16, No Iterations 0
nonDiag.size()=125

U.size()=125

F.size()=125

F = normalisedF;

Selected 0 cells for refinement out of 125.
Selected 0 split points out of a possible 0.
mesh updated
Time = 0.09

DICPCG:  Solving for T, Initial residual = 0.0242869, Final residual = 1.00978e-16, No Iterations 1
DICPCG:  Solving for T, Initial residual = 1.85445e-16, Final residual = 1.85445e-16, No Iterations 0
DICPCG:  Solving for T, Initial residual = 1.85445e-16, Final residual = 1.85445e-16, No Iterations 0
nonDiag.size()=125

U.size()=125

F.size()=125

F = normalisedF;

Selected 0 cells for refinement out of 125.
Selected 0 split points out of a possible 0.
mesh updated
Time = 0.095

DICPCG:  Solving for T, Initial residual = 0.0229682, Final residual = 9.43582e-17, No Iterations 1
DICPCG:  Solving for T, Initial residual = 1.36475e-16, Final residual = 1.36475e-16, No Iterations 0
DICPCG:  Solving for T, Initial residual = 1.36475e-16, Final residual = 1.36475e-16, No Iterations 0
nonDiag.size()=125

U.size()=125

F.size()=125

F = normalisedF;

Selected 0 cells for refinement out of 125.
Selected 0 split points out of a possible 0.
mesh updated
Time = 0.1

DICPCG:  Solving for T, Initial residual = 0.0217853, Final residual = 9.0186e-17, No Iterations 1
DICPCG:  Solving for T, Initial residual = 1.07544e-16, Final residual = 1.07544e-16, No Iterations 0
DICPCG:  Solving for T, Initial residual = 1.07544e-16, Final residual = 1.07544e-16, No Iterations 0
nonDiag.size()=125

U.size()=125

F.size()=125

F = normalisedF;

Selected 0 cells for refinement out of 125.
Selected 0 split points out of a possible 0.
mesh updated
Time = 0.105

DICPCG:  Solving for T, Initial residual = 0.0207183, Final residual = 8.50331e-17, No Iterations 1
DICPCG:  Solving for T, Initial residual = 1.08435e-16, Final residual = 1.08435e-16, No Iterations 0
DICPCG:  Solving for T, Initial residual = 1.08435e-16, Final residual = 1.08435e-16, No Iterations 0
nonDiag.size()=125

U.size()=125

F.size()=125

F = normalisedF;

Selected 0 cells for refinement out of 125.
Selected 0 split points out of a possible 0.
mesh updated
Time = 0.11

DICPCG:  Solving for T, Initial residual = 0.0197509, Final residual = 8.10443e-17, No Iterations 1
DICPCG:  Solving for T, Initial residual = 1.3641e-16, Final residual = 1.3641e-16, No Iterations 0
DICPCG:  Solving for T, Initial residual = 1.3641e-16, Final residual = 1.3641e-16, No Iterations 0
nonDiag.size()=125

U.size()=125

F.size()=125

F = normalisedF;

Selected 0 cells for refinement out of 125.
Selected 0 split points out of a possible 0.
mesh updated
Time = 0.115

DICPCG:  Solving for T, Initial residual = 0.0188699, Final residual = 7.84189e-17, No Iterations 1
DICPCG:  Solving for T, Initial residual = 1.02022e-16, Final residual = 1.02022e-16, No Iterations 0
DICPCG:  Solving for T, Initial residual = 1.02022e-16, Final residual = 1.02022e-16, No Iterations 0
nonDiag.size()=125

U.size()=125

F.size()=125

F = normalisedF;

Selected 0 cells for refinement out of 125.
Selected 0 split points out of a possible 0.
mesh updated
Time = 0.12

DICPCG:  Solving for T, Initial residual = 0.0180641, Final residual = 7.39941e-17, No Iterations 1
DICPCG:  Solving for T, Initial residual = 1.14068e-16, Final residual = 1.14068e-16, No Iterations 0
DICPCG:  Solving for T, Initial residual = 1.14068e-16, Final residual = 1.14068e-16, No Iterations 0
nonDiag.size()=125

U.size()=125

F.size()=125

F = normalisedF;

Selected 0 cells for refinement out of 125.
Selected 0 split points out of a possible 0.
mesh updated
Time = 0.125

DICPCG:  Solving for T, Initial residual = 0.0173243, Final residual = 7.17233e-17, No Iterations 1
DICPCG:  Solving for T, Initial residual = 1.70946e-16, Final residual = 1.70946e-16, No Iterations 0
DICPCG:  Solving for T, Initial residual = 1.70946e-16, Final residual = 1.70946e-16, No Iterations 0
nonDiag.size()=125

U.size()=125

F.size()=125

F = normalisedF;

Selected 0 cells for refinement out of 125.
Selected 0 split points out of a possible 0.
mesh updated
Time = 0.13

DICPCG:  Solving for T, Initial residual = 0.0166427, Final residual = 6.92265e-17, No Iterations 1
DICPCG:  Solving for T, Initial residual = 1.11839e-16, Final residual = 1.11839e-16, No Iterations 0
DICPCG:  Solving for T, Initial residual = 1.11839e-16, Final residual = 1.11839e-16, No Iterations 0
nonDiag.size()=125

U.size()=125

F.size()=125

F = normalisedF;

Selected 0 cells for refinement out of 125.
Selected 0 split points out of a possible 0.
mesh updated
Time = 0.135

DICPCG:  Solving for T, Initial residual = 0.0160127, Final residual = 6.54668e-17, No Iterations 1
DICPCG:  Solving for T, Initial residual = 1.34514e-16, Final residual = 1.34514e-16, No Iterations 0
DICPCG:  Solving for T, Initial residual = 1.34514e-16, Final residual = 1.34514e-16, No Iterations 0
nonDiag.size()=125

U.size()=125

F.size()=125

F = normalisedF;

Selected 0 cells for refinement out of 125.
Selected 0 split points out of a possible 0.
mesh updated
Time = 0.14

DICPCG:  Solving for T, Initial residual = 0.0154287, Final residual = 6.3902e-17, No Iterations 1
DICPCG:  Solving for T, Initial residual = 1.2173e-16, Final residual = 1.2173e-16, No Iterations 0
DICPCG:  Solving for T, Initial residual = 1.2173e-16, Final residual = 1.2173e-16, No Iterations 0
nonDiag.size()=125

U.size()=125

F.size()=125

F = normalisedF;

Selected 0 cells for refinement out of 125.
Selected 0 split points out of a possible 0.
mesh updated
Time = 0.145

DICPCG:  Solving for T, Initial residual = 0.0148858, Final residual = 6.10091e-17, No Iterations 1
DICPCG:  Solving for T, Initial residual = 1.06068e-16, Final residual = 1.06068e-16, No Iterations 0
DICPCG:  Solving for T, Initial residual = 1.06068e-16, Final residual = 1.06068e-16, No Iterations 0
nonDiag.size()=125

U.size()=125

F.size()=125

F = normalisedF;

Selected 0 cells for refinement out of 125.
Selected 0 split points out of a possible 0.
mesh updated
Time = 0.15

DICPCG:  Solving for T, Initial residual = 0.0143798, Final residual = 6.00062e-17, No Iterations 1
DICPCG:  Solving for T, Initial residual = 1.47532e-16, Final residual = 1.47532e-16, No Iterations 0
DICPCG:  Solving for T, Initial residual = 1.47532e-16, Final residual = 1.47532e-16, No Iterations 0
nonDiag.size()=125

U.size()=125

F.size()=125

F = normalisedF;

Selected 0 cells for refinement out of 125.
Selected 0 split points out of a possible 0.
mesh updated
Time = 0.155

DICPCG:  Solving for T, Initial residual = 0.0139071, Final residual = 5.75106e-17, No Iterations 1
DICPCG:  Solving for T, Initial residual = 8.7216e-17, Final residual = 8.7216e-17, No Iterations 0
DICPCG:  Solving for T, Initial residual = 8.7216e-17, Final residual = 8.7216e-17, No Iterations 0
nonDiag.size()=125

U.size()=125

F.size()=125

F = normalisedF;

Selected 0 cells for refinement out of 125.
Selected 0 split points out of a possible 0.
mesh updated
Time = 0.16

DICPCG:  Solving for T, Initial residual = 0.0134645, Final residual = 5.54103e-17, No Iterations 1
DICPCG:  Solving for T, Initial residual = 1.2678e-16, Final residual = 1.2678e-16, No Iterations 0
DICPCG:  Solving for T, Initial residual = 1.2678e-16, Final residual = 1.2678e-16, No Iterations 0
nonDiag.size()=125

U.size()=125

F.size()=125

F = normalisedF;

Selected 0 cells for refinement out of 125.
Selected 0 split points out of a possible 0.
mesh updated
Time = 0.165

DICPCG:  Solving for T, Initial residual = 0.0130491, Final residual = 5.30258e-17, No Iterations 1
DICPCG:  Solving for T, Initial residual = 6.53488e-17, Final residual = 6.53488e-17, No Iterations 0
DICPCG:  Solving for T, Initial residual = 6.53488e-17, Final residual = 6.53488e-17, No Iterations 0
nonDiag.size()=125

U.size()=125

F.size()=125

F = normalisedF;

Selected 0 cells for refinement out of 125.
Selected 0 split points out of a possible 0.
mesh updated
Time = 0.17

DICPCG:  Solving for T, Initial residual = 0.0126587, Final residual = 5.27037e-17, No Iterations 1
DICPCG:  Solving for T, Initial residual = 9.18636e-17, Final residual = 9.18636e-17, No Iterations 0
DICPCG:  Solving for T, Initial residual = 9.18636e-17, Final residual = 9.18636e-17, No Iterations 0
nonDiag.size()=125

U.size()=125

F.size()=125

F = normalisedF;

Selected 0 cells for refinement out of 125.
Selected 0 split points out of a possible 0.
mesh updated
Time = 0.175

DICPCG:  Solving for T, Initial residual = 0.0122909, Final residual = 5.14054e-17, No Iterations 1
DICPCG:  Solving for T, Initial residual = 8.71039e-17, Final residual = 8.71039e-17, No Iterations 0
DICPCG:  Solving for T, Initial residual = 8.71039e-17, Final residual = 8.71039e-17, No Iterations 0
nonDiag.size()=125

U.size()=125

F.size()=125

F = normalisedF;

Selected 0 cells for refinement out of 125.
Selected 0 split points out of a possible 0.
mesh updated
Time = 0.18

DICPCG:  Solving for T, Initial residual = 0.0119439, Final residual = 4.84971e-17, No Iterations 1
DICPCG:  Solving for T, Initial residual = 1.27706e-16, Final residual = 1.27706e-16, No Iterations 0
DICPCG:  Solving for T, Initial residual = 1.27706e-16, Final residual = 1.27706e-16, No Iterations 0
nonDiag.size()=125

U.size()=125

F.size()=125

F = normalisedF;

Selected 0 cells for refinement out of 125.
Selected 0 split points out of a possible 0.
mesh updated
Time = 0.185

DICPCG:  Solving for T, Initial residual = 0.011616, Final residual = 4.80058e-17, No Iterations 1
DICPCG:  Solving for T, Initial residual = 1.03282e-16, Final residual = 1.03282e-16, No Iterations 0
DICPCG:  Solving for T, Initial residual = 1.03282e-16, Final residual = 1.03282e-16, No Iterations 0
nonDiag.size()=125

U.size()=125

F.size()=125

F = normalisedF;

Selected 0 cells for refinement out of 125.
Selected 0 split points out of a possible 0.
mesh updated
Time = 0.19

DICPCG:  Solving for T, Initial residual = 0.0113056, Final residual = 4.65312e-17, No Iterations 1
DICPCG:  Solving for T, Initial residual = 9.4552e-17, Final residual = 9.4552e-17, No Iterations 0
DICPCG:  Solving for T, Initial residual = 9.4552e-17, Final residual = 9.4552e-17, No Iterations 0
nonDiag.size()=125

U.size()=125

F.size()=125

F = normalisedF;

Selected 0 cells for refinement out of 125.
Selected 0 split points out of a possible 0.
mesh updated
Time = 0.195

DICPCG:  Solving for T, Initial residual = 0.0110113, Final residual = 4.55375e-17, No Iterations 1
DICPCG:  Solving for T, Initial residual = 9.05603e-17, Final residual = 9.05603e-17, No Iterations 0
DICPCG:  Solving for T, Initial residual = 9.05603e-17, Final residual = 9.05603e-17, No Iterations 0
nonDiag.size()=125

U.size()=125

F.size()=125

F = normalisedF;

Selected 0 cells for refinement out of 125.
Selected 0 split points out of a possible 0.
mesh updated
Time = 0.2

DICPCG:  Solving for T, Initial residual = 0.010732, Final residual = 4.43047e-17, No Iterations 1
DICPCG:  Solving for T, Initial residual = 9.23109e-17, Final residual = 9.23109e-17, No Iterations 0
DICPCG:  Solving for T, Initial residual = 9.23109e-17, Final residual = 9.23109e-17, No Iterations 0
nonDiag.size()=125

U.size()=125

F.size()=125

F = normalisedF;

Selected 0 cells for refinement out of 125.
Selected 0 split points out of a possible 0.
mesh updated
Time = 0.205

DICPCG:  Solving for T, Initial residual = 0.0104665, Final residual = 4.26172e-17, No Iterations 1
DICPCG:  Solving for T, Initial residual = 1.22573e-16, Final residual = 1.22573e-16, No Iterations 0
DICPCG:  Solving for T, Initial residual = 1.22573e-16, Final residual = 1.22573e-16, No Iterations 0
nonDiag.size()=125

U.size()=125

F.size()=125

F = normalisedF;

Selected 0 cells for refinement out of 125.
Selected 0 split points out of a possible 0.
mesh updated
Time = 0.21

DICPCG:  Solving for T, Initial residual = 0.0102138, Final residual = 4.17164e-17, No Iterations 1
DICPCG:  Solving for T, Initial residual = 9.06343e-17, Final residual = 9.06343e-17, No Iterations 0
DICPCG:  Solving for T, Initial residual = 9.06343e-17, Final residual = 9.06343e-17, No Iterations 0
nonDiag.size()=125

U.size()=125

F.size()=125

F = normalisedF;

Selected 0 cells for refinement out of 125.
Selected 0 split points out of a possible 0.
mesh updated
Time = 0.215

DICPCG:  Solving for T, Initial residual = 0.00997304, Final residual = 4.08136e-17, No Iterations 1
DICPCG:  Solving for T, Initial residual = 1.01654e-16, Final residual = 1.01654e-16, No Iterations 0
DICPCG:  Solving for T, Initial residual = 1.01654e-16, Final residual = 1.01654e-16, No Iterations 0
nonDiag.size()=125

U.size()=125

F.size()=125

F = normalisedF;

Selected 0 cells for refinement out of 125.
Selected 0 split points out of a possible 0.
mesh updated
Time = 0.22

DICPCG:  Solving for T, Initial residual = 0.00974337, Final residual = 3.98026e-17, No Iterations 1
DICPCG:  Solving for T, Initial residual = 6.91828e-17, Final residual = 6.91828e-17, No Iterations 0
DICPCG:  Solving for T, Initial residual = 6.91828e-17, Final residual = 6.91828e-17, No Iterations 0
nonDiag.size()=125

U.size()=125

F.size()=125

F = normalisedF;

Selected 0 cells for refinement out of 125.
Selected 0 split points out of a possible 0.
mesh updated
Time = 0.225

DICPCG:  Solving for T, Initial residual = 0.00952404, Final residual = 3.89606e-17, No Iterations 1
DICPCG:  Solving for T, Initial residual = 6.42705e-17, Final residual = 6.42705e-17, No Iterations 0
DICPCG:  Solving for T, Initial residual = 6.42705e-17, Final residual = 6.42705e-17, No Iterations 0
nonDiag.size()=125

U.size()=125

F.size()=125

F = normalisedF;

Selected 0 cells for refinement out of 125.
Selected 0 split points out of a possible 0.
mesh updated
Time = 0.23

DICPCG:  Solving for T, Initial residual = 0.00931437, Final residual = 3.8363e-17, No Iterations 1
DICPCG:  Solving for T, Initial residual = 5.38859e-17, Final residual = 5.38859e-17, No Iterations 0
DICPCG:  Solving for T, Initial residual = 5.38859e-17, Final residual = 5.38859e-17, No Iterations 0
nonDiag.size()=125

U.size()=125

F.size()=125

F = normalisedF;

Selected 0 cells for refinement out of 125.
Selected 0 split points out of a possible 0.
mesh updated
Time = 0.235

DICPCG:  Solving for T, Initial residual = 0.00911374, Final residual = 3.74706e-17, No Iterations 1
DICPCG:  Solving for T, Initial residual = 8.03315e-17, Final residual = 8.03315e-17, No Iterations 0
DICPCG:  Solving for T, Initial residual = 8.03315e-17, Final residual = 8.03315e-17, No Iterations 0
nonDiag.size()=125

U.size()=125

F.size()=125

F = normalisedF;

Selected 0 cells for refinement out of 125.
Selected 0 split points out of a possible 0.
mesh updated
Time = 0.24

DICPCG:  Solving for T, Initial residual = 0.00892156, Final residual = 3.67285e-17, No Iterations 1
DICPCG:  Solving for T, Initial residual = 7.8901e-17, Final residual = 7.8901e-17, No Iterations 0
DICPCG:  Solving for T, Initial residual = 7.8901e-17, Final residual = 7.8901e-17, No Iterations 0
nonDiag.size()=125

U.size()=125

F.size()=125

F = normalisedF;

Selected 0 cells for refinement out of 125.
Selected 0 split points out of a possible 0.
mesh updated
Time = 0.245

DICPCG:  Solving for T, Initial residual = 0.00873733, Final residual = 3.58146e-17, No Iterations 1
DICPCG:  Solving for T, Initial residual = 6.18135e-17, Final residual = 6.18135e-17, No Iterations 0
DICPCG:  Solving for T, Initial residual = 6.18135e-17, Final residual = 6.18135e-17, No Iterations 0
nonDiag.size()=125

U.size()=125

F.size()=125

F = normalisedF;

Selected 0 cells for refinement out of 125.
Selected 0 split points out of a possible 0.
mesh updated
Time = 0.25

DICPCG:  Solving for T, Initial residual = 0.00856055, Final residual = 3.57951e-17, No Iterations 1
DICPCG:  Solving for T, Initial residual = 1.04563e-16, Final residual = 1.04563e-16, No Iterations 0
DICPCG:  Solving for T, Initial residual = 1.04563e-16, Final residual = 1.04563e-16, No Iterations 0
nonDiag.size()=125

U.size()=125

F.size()=125

F = normalisedF;

Selected 0 cells for refinement out of 125.
Selected 0 split points out of a possible 0.
mesh updated
Time = 0.255

DICPCG:  Solving for T, Initial residual = 0.00839078, Final residual = 3.48429e-17, No Iterations 1
DICPCG:  Solving for T, Initial residual = 1.34763e-16, Final residual = 1.34763e-16, No Iterations 0
DICPCG:  Solving for T, Initial residual = 1.34763e-16, Final residual = 1.34763e-16, No Iterations 0
nonDiag.size()=125

U.size()=125

F.size()=125

F = normalisedF;

Selected 0 cells for refinement out of 125.
Selected 0 split points out of a possible 0.
mesh updated
Time = 0.26

DICPCG:  Solving for T, Initial residual = 0.00822762, Final residual = 3.40167e-17, No Iterations 1
DICPCG:  Solving for T, Initial residual = 1.34047e-16, Final residual = 1.34047e-16, No Iterations 0
DICPCG:  Solving for T, Initial residual = 1.34047e-16, Final residual = 1.34047e-16, No Iterations 0
nonDiag.size()=125

U.size()=125

F.size()=125

F = normalisedF;

Selected 0 cells for refinement out of 125.
Selected 0 split points out of a possible 0.
mesh updated
Time = 0.265

DICPCG:  Solving for T, Initial residual = 0.00807069, Final residual = 3.31921e-17, No Iterations 1
DICPCG:  Solving for T, Initial residual = 1.22814e-16, Final residual = 1.22814e-16, No Iterations 0
DICPCG:  Solving for T, Initial residual = 1.22814e-16, Final residual = 1.22814e-16, No Iterations 0
nonDiag.size()=125

U.size()=125

F.size()=125

F = normalisedF;

Selected 0 cells for refinement out of 125.
Selected 0 split points out of a possible 0.
mesh updated
Time = 0.27

DICPCG:  Solving for T, Initial residual = 0.00791963, Final residual = 3.24748e-17, No Iterations 1
DICPCG:  Solving for T, Initial residual = 1.42753e-16, Final residual = 1.42753e-16, No Iterations 0
DICPCG:  Solving for T, Initial residual = 1.42753e-16, Final residual = 1.42753e-16, No Iterations 0
nonDiag.size()=125

U.size()=125

F.size()=125

F = normalisedF;

Selected 0 cells for refinement out of 125.
Selected 0 split points out of a possible 0.
mesh updated
Time = 0.275

DICPCG:  Solving for T, Initial residual = 0.00777412, Final residual = 3.23495e-17, No Iterations 1
DICPCG:  Solving for T, Initial residual = 1.10228e-16, Final residual = 1.10228e-16, No Iterations 0
DICPCG:  Solving for T, Initial residual = 1.10228e-16, Final residual = 1.10228e-16, No Iterations 0
nonDiag.size()=125

U.size()=125

F.size()=125

F = normalisedF;

Selected 0 cells for refinement out of 125.
Selected 0 split points out of a possible 0.
mesh updated
Time = 0.28

DICPCG:  Solving for T, Initial residual = 0.00763386, Final residual = 3.1226e-17, No Iterations 1
DICPCG:  Solving for T, Initial residual = 8.47244e-17, Final residual = 8.47244e-17, No Iterations 0
DICPCG:  Solving for T, Initial residual = 8.47244e-17, Final residual = 8.47244e-17, No Iterations 0
nonDiag.size()=125

U.size()=125

F.size()=125

F = normalisedF;

Selected 0 cells for refinement out of 125.
Selected 0 split points out of a possible 0.
mesh updated
Time = 0.285

DICPCG:  Solving for T, Initial residual = 0.00749858, Final residual = 3.09887e-17, No Iterations 1
DICPCG:  Solving for T, Initial residual = 1.20848e-16, Final residual = 1.20848e-16, No Iterations 0
DICPCG:  Solving for T, Initial residual = 1.20848e-16, Final residual = 1.20848e-16, No Iterations 0
nonDiag.size()=125

U.size()=125

F.size()=125

F = normalisedF;

Selected 0 cells for refinement out of 125.
Selected 0 split points out of a possible 0.
mesh updated
Time = 0.29

DICPCG:  Solving for T, Initial residual = 0.00736801, Final residual = 3.07209e-17, No Iterations 1
DICPCG:  Solving for T, Initial residual = 7.37951e-17, Final residual = 7.37951e-17, No Iterations 0
DICPCG:  Solving for T, Initial residual = 7.37951e-17, Final residual = 7.37951e-17, No Iterations 0
nonDiag.size()=125

U.size()=125

F.size()=125

F = normalisedF;

Selected 0 cells for refinement out of 125.
Selected 0 split points out of a possible 0.
mesh updated
Time = 0.295

DICPCG:  Solving for T, Initial residual = 0.00724191, Final residual = 2.97447e-17, No Iterations 1
DICPCG:  Solving for T, Initial residual = 1.23e-16, Final residual = 1.23e-16, No Iterations 0
DICPCG:  Solving for T, Initial residual = 1.23e-16, Final residual = 1.23e-16, No Iterations 0
nonDiag.size()=125

U.size()=125

F.size()=125

F = normalisedF;

Selected 0 cells for refinement out of 125.
Selected 0 split points out of a possible 0.
mesh updated
Time = 0.3

DICPCG:  Solving for T, Initial residual = 0.00712005, Final residual = 2.93457e-17, No Iterations 1
DICPCG:  Solving for T, Initial residual = 9.29236e-17, Final residual = 9.29236e-17, No Iterations 0
DICPCG:  Solving for T, Initial residual = 9.29236e-17, Final residual = 9.29236e-17, No Iterations 0
nonDiag.size()=125

U.size()=125

F.size()=125

F = normalisedF;

Selected 0 cells for refinement out of 125.
Selected 0 split points out of a possible 0.
mesh updated
Time = 0.305

DICPCG:  Solving for T, Initial residual = 0.00700223, Final residual = 2.86797e-17, No Iterations 1
DICPCG:  Solving for T, Initial residual = 5.9694e-17, Final residual = 5.9694e-17, No Iterations 0
DICPCG:  Solving for T, Initial residual = 5.9694e-17, Final residual = 5.9694e-17, No Iterations 0
nonDiag.size()=125

U.size()=125

F.size()=125

F = normalisedF;

Selected 0 cells for refinement out of 125.
Selected 0 split points out of a possible 0.
mesh updated
Time = 0.31

DICPCG:  Solving for T, Initial residual = 0.00688824, Final residual = 2.85052e-17, No Iterations 1
DICPCG:  Solving for T, Initial residual = 7.20701e-17, Final residual = 7.20701e-17, No Iterations 0
DICPCG:  Solving for T, Initial residual = 7.20701e-17, Final residual = 7.20701e-17, No Iterations 0
nonDiag.size()=125

U.size()=125

F.size()=125

F = normalisedF;

Selected 0 cells for refinement out of 125.
Selected 0 split points out of a possible 0.
mesh updated
Time = 0.315

DICPCG:  Solving for T, Initial residual = 0.00677791, Final residual = 2.80015e-17, No Iterations 1
DICPCG:  Solving for T, Initial residual = 1.03443e-16, Final residual = 1.03443e-16, No Iterations 0
DICPCG:  Solving for T, Initial residual = 1.03443e-16, Final residual = 1.03443e-16, No Iterations 0
nonDiag.size()=125

U.size()=125

F.size()=125

F = normalisedF;

Selected 0 cells for refinement out of 125.
Selected 0 split points out of a possible 0.
mesh updated
Time = 0.32

DICPCG:  Solving for T, Initial residual = 0.00667106, Final residual = 2.73146e-17, No Iterations 1
DICPCG:  Solving for T, Initial residual = 9.30943e-17, Final residual = 9.30943e-17, No Iterations 0
DICPCG:  Solving for T, Initial residual = 9.30943e-17, Final residual = 9.30943e-17, No Iterations 0
nonDiag.size()=125

U.size()=125

F.size()=125

F = normalisedF;

Selected 0 cells for refinement out of 125.
Selected 0 split points out of a possible 0.
mesh updated
Time = 0.325

DICPCG:  Solving for T, Initial residual = 0.00656752, Final residual = 2.70261e-17, No Iterations 1
DICPCG:  Solving for T, Initial residual = 8.18091e-17, Final residual = 8.18091e-17, No Iterations 0
DICPCG:  Solving for T, Initial residual = 8.18091e-17, Final residual = 8.18091e-17, No Iterations 0
nonDiag.size()=125

U.size()=125

F.size()=125

F = normalisedF;

Selected 0 cells for refinement out of 125.
Selected 0 split points out of a possible 0.
mesh updated
Time = 0.33

DICPCG:  Solving for T, Initial residual = 0.00646715, Final residual = 2.65654e-17, No Iterations 1
DICPCG:  Solving for T, Initial residual = 7.32751e-17, Final residual = 7.32751e-17, No Iterations 0
DICPCG:  Solving for T, Initial residual = 7.32751e-17, Final residual = 7.32751e-17, No Iterations 0
nonDiag.size()=125

U.size()=125

F.size()=125

F = normalisedF;

Selected 0 cells for refinement out of 125.
Selected 0 split points out of a possible 0.
mesh updated
Time = 0.335

DICPCG:  Solving for T, Initial residual = 0.0063698, Final residual = 2.6168e-17, No Iterations 1
DICPCG:  Solving for T, Initial residual = 7.62902e-17, Final residual = 7.62902e-17, No Iterations 0
DICPCG:  Solving for T, Initial residual = 7.62902e-17, Final residual = 7.62902e-17, No Iterations 0
nonDiag.size()=125

U.size()=125

F.size()=125

F = normalisedF;

Selected 0 cells for refinement out of 125.
Selected 0 split points out of a possible 0.
mesh updated
Time = 0.34

DICPCG:  Solving for T, Initial residual = 0.00627534, Final residual = 2.57169e-17, No Iterations 1
DICPCG:  Solving for T, Initial residual = 5.35714e-17, Final residual = 5.35714e-17, No Iterations 0
DICPCG:  Solving for T, Initial residual = 5.35714e-17, Final residual = 5.35714e-17, No Iterations 0
nonDiag.size()=125

U.size()=125

F.size()=125

F = normalisedF;

Selected 0 cells for refinement out of 125.
Selected 0 split points out of a possible 0.
mesh updated
Time = 0.345

DICPCG:  Solving for T, Initial residual = 0.00618364, Final residual = 2.53653e-17, No Iterations 1
DICPCG:  Solving for T, Initial residual = 7.02632e-17, Final residual = 7.02632e-17, No Iterations 0
DICPCG:  Solving for T, Initial residual = 7.02632e-17, Final residual = 7.02632e-17, No Iterations 0
nonDiag.size()=125

U.size()=125

F.size()=125

F = normalisedF;

Selected 0 cells for refinement out of 125.
Selected 0 split points out of a possible 0.
mesh updated
Time = 0.35

DICPCG:  Solving for T, Initial residual = 0.00609459, Final residual = 2.51591e-17, No Iterations 1
DICPCG:  Solving for T, Initial residual = 1.02433e-16, Final residual = 1.02433e-16, No Iterations 0
DICPCG:  Solving for T, Initial residual = 1.02433e-16, Final residual = 1.02433e-16, No Iterations 0
nonDiag.size()=125

U.size()=125

F.size()=125

F = normalisedF;

Selected 0 cells for refinement out of 125.
Selected 0 split points out of a possible 0.
mesh updated
Time = 0.355

DICPCG:  Solving for T, Initial residual = 0.00600806, Final residual = 2.44972e-17, No Iterations 1
DICPCG:  Solving for T, Initial residual = 9.02948e-17, Final residual = 9.02948e-17, No Iterations 0
DICPCG:  Solving for T, Initial residual = 9.02948e-17, Final residual = 9.02948e-17, No Iterations 0
nonDiag.size()=125

U.size()=125

F.size()=125

F = normalisedF;

Selected 0 cells for refinement out of 125.
Selected 0 split points out of a possible 0.
mesh updated
Time = 0.36

DICPCG:  Solving for T, Initial residual = 0.00592396, Final residual = 2.42903e-17, No Iterations 1
DICPCG:  Solving for T, Initial residual = 5.69623e-17, Final residual = 5.69623e-17, No Iterations 0
DICPCG:  Solving for T, Initial residual = 5.69623e-17, Final residual = 5.69623e-17, No Iterations 0
nonDiag.size()=125

U.size()=125

F.size()=125

F = normalisedF;

Selected 0 cells for refinement out of 125.
Selected 0 split points out of a possible 0.
mesh updated
Time = 0.365

DICPCG:  Solving for T, Initial residual = 0.00584218, Final residual = 2.40813e-17, No Iterations 1
DICPCG:  Solving for T, Initial residual = 5.64299e-17, Final residual = 5.64299e-17, No Iterations 0
DICPCG:  Solving for T, Initial residual = 5.64299e-17, Final residual = 5.64299e-17, No Iterations 0
nonDiag.size()=125

U.size()=125

F.size()=125

F = normalisedF;

Selected 0 cells for refinement out of 125.
Selected 0 split points out of a possible 0.
mesh updated
Time = 0.37

DICPCG:  Solving for T, Initial residual = 0.00576262, Final residual = 2.37666e-17, No Iterations 1
DICPCG:  Solving for T, Initial residual = 5.03943e-17, Final residual = 5.03943e-17, No Iterations 0
DICPCG:  Solving for T, Initial residual = 5.03943e-17, Final residual = 5.03943e-17, No Iterations 0
nonDiag.size()=125

U.size()=125

F.size()=125

F = normalisedF;

Selected 0 cells for refinement out of 125.
Selected 0 split points out of a possible 0.
mesh updated
Time = 0.375

DICPCG:  Solving for T, Initial residual = 0.00568521, Final residual = 2.33089e-17, No Iterations 1
DICPCG:  Solving for T, Initial residual = 7.32748e-17, Final residual = 7.32748e-17, No Iterations 0
DICPCG:  Solving for T, Initial residual = 7.32748e-17, Final residual = 7.32748e-17, No Iterations 0
nonDiag.size()=125

U.size()=125

F.size()=125

F = normalisedF;

Selected 0 cells for refinement out of 125.
Selected 0 split points out of a possible 0.
mesh updated
Time = 0.38

DICPCG:  Solving for T, Initial residual = 0.00560985, Final residual = 2.2874e-17, No Iterations 1
DICPCG:  Solving for T, Initial residual = 4.04865e-17, Final residual = 4.04865e-17, No Iterations 0
DICPCG:  Solving for T, Initial residual = 4.04865e-17, Final residual = 4.04865e-17, No Iterations 0
nonDiag.size()=125

U.size()=125

F.size()=125

F = normalisedF;

Selected 0 cells for refinement out of 125.
Selected 0 split points out of a possible 0.
mesh updated
Time = 0.385

DICPCG:  Solving for T, Initial residual = 0.00553646, Final residual = 2.30967e-17, No Iterations 1
DICPCG:  Solving for T, Initial residual = 5.7141e-17, Final residual = 5.7141e-17, No Iterations 0
DICPCG:  Solving for T, Initial residual = 5.7141e-17, Final residual = 5.7141e-17, No Iterations 0
nonDiag.size()=125

U.size()=125

F.size()=125

F = normalisedF;

Selected 0 cells for refinement out of 125.
Selected 0 split points out of a possible 0.
mesh updated
Time = 0.39

DICPCG:  Solving for T, Initial residual = 0.00546496, Final residual = 2.25071e-17, No Iterations 1
DICPCG:  Solving for T, Initial residual = 6.55295e-17, Final residual = 6.55295e-17, No Iterations 0
DICPCG:  Solving for T, Initial residual = 6.55295e-17, Final residual = 6.55295e-17, No Iterations 0
nonDiag.size()=125

U.size()=125

F.size()=125

F = normalisedF;

Selected 0 cells for refinement out of 125.
Selected 0 split points out of a possible 0.
mesh updated
Time = 0.395

DICPCG:  Solving for T, Initial residual = 0.00539529, Final residual = 2.22191e-17, No Iterations 1
DICPCG:  Solving for T, Initial residual = 5.67014e-17, Final residual = 5.67014e-17, No Iterations 0
DICPCG:  Solving for T, Initial residual = 5.67014e-17, Final residual = 5.67014e-17, No Iterations 0
nonDiag.size()=125

U.size()=125

F.size()=125

F = normalisedF;

Selected 0 cells for refinement out of 125.
Selected 0 split points out of a possible 0.
mesh updated
Time = 0.4

DICPCG:  Solving for T, Initial residual = 0.00532738, Final residual = 2.1789e-17, No Iterations 1
DICPCG:  Solving for T, Initial residual = 5.72882e-17, Final residual = 5.72882e-17, No Iterations 0
DICPCG:  Solving for T, Initial residual = 5.72882e-17, Final residual = 5.72882e-17, No Iterations 0
nonDiag.size()=125

U.size()=125

F.size()=125

F = normalisedF;

Selected 0 cells for refinement out of 125.
Selected 0 split points out of a possible 0.
mesh updated
Time = 0.405

DICPCG:  Solving for T, Initial residual = 0.00526115, Final residual = 2.16909e-17, No Iterations 1
DICPCG:  Solving for T, Initial residual = 5.429e-17, Final residual = 5.429e-17, No Iterations 0
DICPCG:  Solving for T, Initial residual = 5.429e-17, Final residual = 5.429e-17, No Iterations 0
nonDiag.size()=125

U.size()=125

F.size()=125

F = normalisedF;

Selected 0 cells for refinement out of 125.
Selected 0 split points out of a possible 0.
mesh updated
Time = 0.41

DICPCG:  Solving for T, Initial residual = 0.00519655, Final residual = 2.12918e-17, No Iterations 1
DICPCG:  Solving for T, Initial residual = 7.52234e-17, Final residual = 7.52234e-17, No Iterations 0
DICPCG:  Solving for T, Initial residual = 7.52234e-17, Final residual = 7.52234e-17, No Iterations 0
nonDiag.size()=125

U.size()=125

F.size()=125

F = normalisedF;

Selected 0 cells for refinement out of 125.
Selected 0 split points out of a possible 0.
mesh updated
Time = 0.415

DICPCG:  Solving for T, Initial residual = 0.00513352, Final residual = 2.1176e-17, No Iterations 1
DICPCG:  Solving for T, Initial residual = 4.24456e-17, Final residual = 4.24456e-17, No Iterations 0
DICPCG:  Solving for T, Initial residual = 4.24456e-17, Final residual = 4.24456e-17, No Iterations 0
nonDiag.size()=125

U.size()=125

F.size()=125

F = normalisedF;

Selected 0 cells for refinement out of 125.
Selected 0 split points out of a possible 0.
mesh updated
Time = 0.42

DICPCG:  Solving for T, Initial residual = 0.005072, Final residual = 2.10633e-17, No Iterations 1
DICPCG:  Solving for T, Initial residual = 5.92806e-17, Final residual = 5.92806e-17, No Iterations 0
DICPCG:  Solving for T, Initial residual = 5.92806e-17, Final residual = 5.92806e-17, No Iterations 0
nonDiag.size()=125

U.size()=125

F.size()=125

F = normalisedF;

Selected 0 cells for refinement out of 125.
Selected 0 split points out of a possible 0.
mesh updated
Time = 0.425

DICPCG:  Solving for T, Initial residual = 0.00501194, Final residual = 2.04174e-17, No Iterations 1
DICPCG:  Solving for T, Initial residual = 4.83889e-17, Final residual = 4.83889e-17, No Iterations 0
DICPCG:  Solving for T, Initial residual = 4.83889e-17, Final residual = 4.83889e-17, No Iterations 0
nonDiag.size()=125

U.size()=125

F.size()=125

F = normalisedF;

Selected 0 cells for refinement out of 125.
Selected 0 split points out of a possible 0.
mesh updated
Time = 0.43

DICPCG:  Solving for T, Initial residual = 0.00495328, Final residual = 2.03841e-17, No Iterations 1
DICPCG:  Solving for T, Initial residual = 5.0348e-17, Final residual = 5.0348e-17, No Iterations 0
DICPCG:  Solving for T, Initial residual = 5.0348e-17, Final residual = 5.0348e-17, No Iterations 0
nonDiag.size()=125

U.size()=125

F.size()=125

F = normalisedF;

Selected 0 cells for refinement out of 125.
Selected 0 split points out of a possible 0.
mesh updated
Time = 0.435

DICPCG:  Solving for T, Initial residual = 0.00489598, Final residual = 2.03988e-17, No Iterations 1
DICPCG:  Solving for T, Initial residual = 6.00291e-17, Final residual = 6.00291e-17, No Iterations 0
DICPCG:  Solving for T, Initial residual = 6.00291e-17, Final residual = 6.00291e-17, No Iterations 0
nonDiag.size()=125

U.size()=125

F.size()=125

F = normalisedF;

Selected 0 cells for refinement out of 125.
Selected 0 split points out of a possible 0.
mesh updated
Time = 0.44

DICPCG:  Solving for T, Initial residual = 0.00483999, Final residual = 1.97673e-17, No Iterations 1
DICPCG:  Solving for T, Initial residual = 3.79816e-17, Final residual = 3.79816e-17, No Iterations 0
DICPCG:  Solving for T, Initial residual = 3.79816e-17, Final residual = 3.79816e-17, No Iterations 0
nonDiag.size()=125

U.size()=125

F.size()=125

F = normalisedF;

Selected 0 cells for refinement out of 125.
Selected 0 split points out of a possible 0.
mesh updated
Time = 0.445

DICPCG:  Solving for T, Initial residual = 0.00478527, Final residual = 1.98148e-17, No Iterations 1
DICPCG:  Solving for T, Initial residual = 5.98812e-17, Final residual = 5.98812e-17, No Iterations 0
DICPCG:  Solving for T, Initial residual = 5.98812e-17, Final residual = 5.98812e-17, No Iterations 0
nonDiag.size()=125

U.size()=125

F.size()=125

F = normalisedF;

Selected 0 cells for refinement out of 125.
Selected 0 split points out of a possible 0.
mesh updated
Time = 0.45

DICPCG:  Solving for T, Initial residual = 0.00473178, Final residual = 1.95899e-17, No Iterations 1
DICPCG:  Solving for T, Initial residual = 6.0324e-17, Final residual = 6.0324e-17, No Iterations 0
DICPCG:  Solving for T, Initial residual = 6.0324e-17, Final residual = 6.0324e-17, No Iterations 0
nonDiag.size()=125

U.size()=125

F.size()=125

F = normalisedF;

Selected 0 cells for refinement out of 125.
Selected 0 split points out of a possible 0.
mesh updated
Time = 0.455

DICPCG:  Solving for T, Initial residual = 0.00467946, Final residual = 1.9399e-17, No Iterations 1
DICPCG:  Solving for T, Initial residual = 5.36526e-17, Final residual = 5.36526e-17, No Iterations 0
DICPCG:  Solving for T, Initial residual = 5.36526e-17, Final residual = 5.36526e-17, No Iterations 0
nonDiag.size()=125

U.size()=125

F.size()=125

F = normalisedF;

Selected 0 cells for refinement out of 125.
Selected 0 split points out of a possible 0.
mesh updated
Time = 0.46

DICPCG:  Solving for T, Initial residual = 0.00462829, Final residual = 1.92023e-17, No Iterations 1
DICPCG:  Solving for T, Initial residual = 9.09532e-17, Final residual = 9.09532e-17, No Iterations 0
DICPCG:  Solving for T, Initial residual = 9.09532e-17, Final residual = 9.09532e-17, No Iterations 0
nonDiag.size()=125

U.size()=125

F.size()=125

F = normalisedF;

Selected 0 cells for refinement out of 125.
Selected 0 split points out of a possible 0.
mesh updated
Time = 0.465

DICPCG:  Solving for T, Initial residual = 0.00457823, Final residual = 1.87583e-17, No Iterations 1
DICPCG:  Solving for T, Initial residual = 5.72526e-17, Final residual = 5.72526e-17, No Iterations 0
DICPCG:  Solving for T, Initial residual = 5.72526e-17, Final residual = 5.72526e-17, No Iterations 0
nonDiag.size()=125

U.size()=125

F.size()=125

F = normalisedF;

Selected 0 cells for refinement out of 125.
Selected 0 split points out of a possible 0.
mesh updated
Time = 0.47

DICPCG:  Solving for T, Initial residual = 0.00452924, Final residual = 1.89062e-17, No Iterations 1
DICPCG:  Solving for T, Initial residual = 4.28362e-17, Final residual = 4.28362e-17, No Iterations 0
DICPCG:  Solving for T, Initial residual = 4.28362e-17, Final residual = 4.28362e-17, No Iterations 0
nonDiag.size()=125

U.size()=125

F.size()=125

F = normalisedF;

Selected 0 cells for refinement out of 125.
Selected 0 split points out of a possible 0.
mesh updated
Time = 0.475

DICPCG:  Solving for T, Initial residual = 0.00448129, Final residual = 1.83378e-17, No Iterations 1
DICPCG:  Solving for T, Initial residual = 5.90349e-17, Final residual = 5.90349e-17, No Iterations 0
DICPCG:  Solving for T, Initial residual = 5.90349e-17, Final residual = 5.90349e-17, No Iterations 0
nonDiag.size()=125

U.size()=125

F.size()=125

F = normalisedF;

Selected 0 cells for refinement out of 125.
Selected 0 split points out of a possible 0.
mesh updated
Time = 0.48

DICPCG:  Solving for T, Initial residual = 0.00443434, Final residual = 1.82256e-17, No Iterations 1
DICPCG:  Solving for T, Initial residual = 7.07288e-17, Final residual = 7.07288e-17, No Iterations 0
DICPCG:  Solving for T, Initial residual = 7.07288e-17, Final residual = 7.07288e-17, No Iterations 0
nonDiag.size()=125

U.size()=125

F.size()=125

F = normalisedF;

Selected 0 cells for refinement out of 125.
Selected 0 split points out of a possible 0.
mesh updated
Time = 0.485

DICPCG:  Solving for T, Initial residual = 0.00438836, Final residual = 1.80409e-17, No Iterations 1
DICPCG:  Solving for T, Initial residual = 4.91338e-17, Final residual = 4.91338e-17, No Iterations 0
DICPCG:  Solving for T, Initial residual = 4.91338e-17, Final residual = 4.91338e-17, No Iterations 0
nonDiag.size()=125

U.size()=125

F.size()=125

F = normalisedF;

Selected 0 cells for refinement out of 125.
Selected 0 split points out of a possible 0.
mesh updated
Time = 0.49

DICPCG:  Solving for T, Initial residual = 0.00434333, Final residual = 1.79022e-17, No Iterations 1
DICPCG:  Solving for T, Initial residual = 5.42068e-17, Final residual = 5.42068e-17, No Iterations 0
DICPCG:  Solving for T, Initial residual = 5.42068e-17, Final residual = 5.42068e-17, No Iterations 0
nonDiag.size()=125

U.size()=125

F.size()=125

F = normalisedF;

Selected 0 cells for refinement out of 125.
Selected 0 split points out of a possible 0.
mesh updated
Time = 0.495

DICPCG:  Solving for T, Initial residual = 0.00429922, Final residual = 1.77024e-17, No Iterations 1
DICPCG:  Solving for T, Initial residual = 5.28845e-17, Final residual = 5.28845e-17, No Iterations 0
DICPCG:  Solving for T, Initial residual = 5.28845e-17, Final residual = 5.28845e-17, No Iterations 0
nonDiag.size()=125

U.size()=125

F.size()=125

F = normalisedF;

Selected 0 cells for refinement out of 125.
Selected 0 split points out of a possible 0.
mesh updated
Time = 0.5

DICPCG:  Solving for T, Initial residual = 0.00425599, Final residual = 1.75717e-17, No Iterations 1
DICPCG:  Solving for T, Initial residual = 9.38594e-17, Final residual = 9.38594e-17, No Iterations 0
DICPCG:  Solving for T, Initial residual = 9.38594e-17, Final residual = 9.38594e-17, No Iterations 0
nonDiag.size()=125

U.size()=125

F.size()=125

F = normalisedF;

Selected 0 cells for refinement out of 125.
Selected 0 split points out of a possible 0.
mesh updated
Time = 0.505

DICPCG:  Solving for T, Initial residual = 0.00421363, Final residual = 1.75842e-17, No Iterations 1
DICPCG:  Solving for T, Initial residual = 7.36078e-17, Final residual = 7.36078e-17, No Iterations 0
DICPCG:  Solving for T, Initial residual = 7.36078e-17, Final residual = 7.36078e-17, No Iterations 0
nonDiag.size()=125

U.size()=125

F.size()=125

F = normalisedF;

Selected 0 cells for refinement out of 125.
Selected 0 split points out of a possible 0.
mesh updated
Time = 0.51

DICPCG:  Solving for T, Initial residual = 0.0041721, Final residual = 1.73737e-17, No Iterations 1
DICPCG:  Solving for T, Initial residual = 1.1091e-16, Final residual = 1.1091e-16, No Iterations 0
DICPCG:  Solving for T, Initial residual = 1.1091e-16, Final residual = 1.1091e-16, No Iterations 0
nonDiag.size()=125

U.size()=125

F.size()=125

F = normalisedF;

Selected 0 cells for refinement out of 125.
Selected 0 split points out of a possible 0.
mesh updated
Time = 0.515

DICPCG:  Solving for T, Initial residual = 0.00413138, Final residual = 1.70072e-17, No Iterations 1
DICPCG:  Solving for T, Initial residual = 6.86477e-17, Final residual = 6.86477e-17, No Iterations 0
DICPCG:  Solving for T, Initial residual = 6.86477e-17, Final residual = 6.86477e-17, No Iterations 0
nonDiag.size()=125

U.size()=125

F.size()=125

F = normalisedF;

Selected 0 cells for refinement out of 125.
Selected 0 split points out of a possible 0.
mesh updated
Time = 0.52

DICPCG:  Solving for T, Initial residual = 0.00409144, Final residual = 1.68905e-17, No Iterations 1
DICPCG:  Solving for T, Initial residual = 1.10866e-16, Final residual = 1.10866e-16, No Iterations 0
DICPCG:  Solving for T, Initial residual = 1.10866e-16, Final residual = 1.10866e-16, No Iterations 0
nonDiag.size()=125

U.size()=125

F.size()=125

F = normalisedF;

Selected 0 cells for refinement out of 125.
Selected 0 split points out of a possible 0.
mesh updated
Time = 0.525

DICPCG:  Solving for T, Initial residual = 0.00405228, Final residual = 1.67831e-17, No Iterations 1
DICPCG:  Solving for T, Initial residual = 7.60289e-17, Final residual = 7.60289e-17, No Iterations 0
DICPCG:  Solving for T, Initial residual = 7.60289e-17, Final residual = 7.60289e-17, No Iterations 0
nonDiag.size()=125

U.size()=125

F.size()=125

F = normalisedF;

Selected 0 cells for refinement out of 125.
Selected 0 split points out of a possible 0.
mesh updated
Time = 0.53

DICPCG:  Solving for T, Initial residual = 0.00401385, Final residual = 1.65271e-17, No Iterations 1
DICPCG:  Solving for T, Initial residual = 1.68319e-16, Final residual = 1.68319e-16, No Iterations 0
DICPCG:  Solving for T, Initial residual = 1.68319e-16, Final residual = 1.68319e-16, No Iterations 0
nonDiag.size()=125

U.size()=125

F.size()=125

F = normalisedF;

Selected 0 cells for refinement out of 125.
Selected 0 split points out of a possible 0.
mesh updated
Time = 0.535

DICPCG:  Solving for T, Initial residual = 0.00397615, Final residual = 1.63291e-17, No Iterations 1
DICPCG:  Solving for T, Initial residual = 1.6434e-16, Final residual = 1.6434e-16, No Iterations 0
DICPCG:  Solving for T, Initial residual = 1.6434e-16, Final residual = 1.6434e-16, No Iterations 0
nonDiag.size()=125

U.size()=125

F.size()=125

F = normalisedF;

Selected 0 cells for refinement out of 125.
Selected 0 split points out of a possible 0.
mesh updated
Time = 0.54

DICPCG:  Solving for T, Initial residual = 0.00393915, Final residual = 1.61559e-17, No Iterations 1
DICPCG:  Solving for T, Initial residual = 4.53664e-17, Final residual = 4.53664e-17, No Iterations 0
DICPCG:  Solving for T, Initial residual = 4.53664e-17, Final residual = 4.53664e-17, No Iterations 0
nonDiag.size()=125

U.size()=125

F.size()=125

F = normalisedF;

Selected 0 cells for refinement out of 125.
Selected 0 split points out of a possible 0.
mesh updated
Time = 0.545

DICPCG:  Solving for T, Initial residual = 0.00390283, Final residual = 1.58759e-17, No Iterations 1
DICPCG:  Solving for T, Initial residual = 8.82777e-17, Final residual = 8.82777e-17, No Iterations 0
DICPCG:  Solving for T, Initial residual = 8.82777e-17, Final residual = 8.82777e-17, No Iterations 0
nonDiag.size()=125

U.size()=125

F.size()=125

F = normalisedF;

Selected 0 cells for refinement out of 125.
Selected 0 split points out of a possible 0.
mesh updated
Time = 0.55

DICPCG:  Solving for T, Initial residual = 0.00386718, Final residual = 1.59479e-17, No Iterations 1
DICPCG:  Solving for T, Initial residual = 9.13857e-17, Final residual = 9.13857e-17, No Iterations 0
DICPCG:  Solving for T, Initial residual = 9.13857e-17, Final residual = 9.13857e-17, No Iterations 0
nonDiag.size()=125

U.size()=125

F.size()=125

F = normalisedF;

Selected 0 cells for refinement out of 125.
Selected 0 split points out of a possible 0.
mesh updated
Time = 0.555

DICPCG:  Solving for T, Initial residual = 0.00383217, Final residual = 1.5686e-17, No Iterations 1
DICPCG:  Solving for T, Initial residual = 8.04557e-17, Final residual = 8.04557e-17, No Iterations 0
DICPCG:  Solving for T, Initial residual = 8.04557e-17, Final residual = 8.04557e-17, No Iterations 0
nonDiag.size()=125

U.size()=125

F.size()=125

F = normalisedF;

Selected 0 cells for refinement out of 125.
Selected 0 split points out of a possible 0.
mesh updated
Time = 0.56

DICPCG:  Solving for T, Initial residual = 0.00379779, Final residual = 1.56526e-17, No Iterations 1
DICPCG:  Solving for T, Initial residual = 1.32474e-16, Final residual = 1.32474e-16, No Iterations 0
DICPCG:  Solving for T, Initial residual = 1.32474e-16, Final residual = 1.32474e-16, No Iterations 0
nonDiag.size()=125

U.size()=125

F.size()=125

F = normalisedF;

Selected 0 cells for refinement out of 125.
Selected 0 split points out of a possible 0.
mesh updated
Time = 0.565

DICPCG:  Solving for T, Initial residual = 0.00376402, Final residual = 1.54875e-17, No Iterations 1
DICPCG:  Solving for T, Initial residual = 1.16718e-16, Final residual = 1.16718e-16, No Iterations 0
DICPCG:  Solving for T, Initial residual = 1.16718e-16, Final residual = 1.16718e-16, No Iterations 0
nonDiag.size()=125

U.size()=125

F.size()=125

F = normalisedF;

Selected 0 cells for refinement out of 125.
Selected 0 split points out of a possible 0.
mesh updated
Time = 0.57

DICPCG:  Solving for T, Initial residual = 0.00373085, Final residual = 1.54015e-17, No Iterations 1
DICPCG:  Solving for T, Initial residual = 7.87131e-17, Final residual = 7.87131e-17, No Iterations 0
DICPCG:  Solving for T, Initial residual = 7.87131e-17, Final residual = 7.87131e-17, No Iterations 0
nonDiag.size()=125

U.size()=125

F.size()=125

F = normalisedF;

Selected 0 cells for refinement out of 125.
Selected 0 split points out of a possible 0.
mesh updated
Time = 0.575

DICPCG:  Solving for T, Initial residual = 0.00369826, Final residual = 1.51393e-17, No Iterations 1
DICPCG:  Solving for T, Initial residual = 5.99082e-17, Final residual = 5.99082e-17, No Iterations 0
DICPCG:  Solving for T, Initial residual = 5.99082e-17, Final residual = 5.99082e-17, No Iterations 0
nonDiag.size()=125

U.size()=125

F.size()=125

F = normalisedF;

Selected 0 cells for refinement out of 125.
Selected 0 split points out of a possible 0.
mesh updated
Time = 0.58

DICPCG:  Solving for T, Initial residual = 0.00366623, Final residual = 1.51023e-17, No Iterations 1
DICPCG:  Solving for T, Initial residual = 3.36587e-17, Final residual = 3.36587e-17, No Iterations 0
DICPCG:  Solving for T, Initial residual = 3.36587e-17, Final residual = 3.36587e-17, No Iterations 0
nonDiag.size()=125

U.size()=125

F.size()=125

F = normalisedF;

Selected 0 cells for refinement out of 125.
Selected 0 split points out of a possible 0.
mesh updated
Time = 0.585

DICPCG:  Solving for T, Initial residual = 0.00363475, Final residual = 1.50393e-17, No Iterations 1
DICPCG:  Solving for T, Initial residual = 5.89804e-17, Final residual = 5.89804e-17, No Iterations 0
DICPCG:  Solving for T, Initial residual = 5.89804e-17, Final residual = 5.89804e-17, No Iterations 0
nonDiag.size()=125

U.size()=125

F.size()=125

F = normalisedF;

Selected 0 cells for refinement out of 125.
Selected 0 split points out of a possible 0.
mesh updated
Time = 0.59

DICPCG:  Solving for T, Initial residual = 0.00360381, Final residual = 1.47427e-17, No Iterations 1
DICPCG:  Solving for T, Initial residual = 7.26231e-17, Final residual = 7.26231e-17, No Iterations 0
DICPCG:  Solving for T, Initial residual = 7.26231e-17, Final residual = 7.26231e-17, No Iterations 0
nonDiag.size()=125

U.size()=125

F.size()=125

F = normalisedF;

Selected 0 cells for refinement out of 125.
Selected 0 split points out of a possible 0.
mesh updated
Time = 0.595

DICPCG:  Solving for T, Initial residual = 0.00357339, Final residual = 1.4675e-17, No Iterations 1
DICPCG:  Solving for T, Initial residual = 8.72998e-17, Final residual = 8.72998e-17, No Iterations 0
DICPCG:  Solving for T, Initial residual = 8.72998e-17, Final residual = 8.72998e-17, No Iterations 0
nonDiag.size()=125

U.size()=125

F.size()=125

F = normalisedF;

Selected 0 cells for refinement out of 125.
Selected 0 split points out of a possible 0.
mesh updated
Time = 0.6

DICPCG:  Solving for T, Initial residual = 0.00354348, Final residual = 1.44609e-17, No Iterations 1
DICPCG:  Solving for T, Initial residual = 7.45917e-17, Final residual = 7.45917e-17, No Iterations 0
DICPCG:  Solving for T, Initial residual = 7.45917e-17, Final residual = 7.45917e-17, No Iterations 0
nonDiag.size()=125

U.size()=125

F.size()=125

F = normalisedF;

Selected 0 cells for refinement out of 125.
Selected 0 split points out of a possible 0.
mesh updated
Time = 0.605

DICPCG:  Solving for T, Initial residual = 0.00351407, Final residual = 1.4436e-17, No Iterations 1
DICPCG:  Solving for T, Initial residual = 8.43244e-17, Final residual = 8.43244e-17, No Iterations 0
DICPCG:  Solving for T, Initial residual = 8.43244e-17, Final residual = 8.43244e-17, No Iterations 0
nonDiag.size()=125

U.size()=125

F.size()=125

F = normalisedF;

Selected 0 cells for refinement out of 125.
Selected 0 split points out of a possible 0.
mesh updated
Time = 0.61

DICPCG:  Solving for T, Initial residual = 0.00348514, Final residual = 1.43965e-17, No Iterations 1
DICPCG:  Solving for T, Initial residual = 6.43011e-17, Final residual = 6.43011e-17, No Iterations 0
DICPCG:  Solving for T, Initial residual = 6.43011e-17, Final residual = 6.43011e-17, No Iterations 0
nonDiag.size()=125

U.size()=125

F.size()=125

F = normalisedF;

Selected 0 cells for refinement out of 125.
Selected 0 split points out of a possible 0.
mesh updated
Time = 0.615

DICPCG:  Solving for T, Initial residual = 0.00345669, Final residual = 1.42494e-17, No Iterations 1
DICPCG:  Solving for T, Initial residual = 1.64188e-16, Final residual = 1.64188e-16, No Iterations 0
DICPCG:  Solving for T, Initial residual = 1.64188e-16, Final residual = 1.64188e-16, No Iterations 0
nonDiag.size()=125

U.size()=125

F.size()=125

F = normalisedF;

Selected 0 cells for refinement out of 125.
Selected 0 split points out of a possible 0.
mesh updated
Time = 0.62

DICPCG:  Solving for T, Initial residual = 0.00342869, Final residual = 1.41499e-17, No Iterations 1
DICPCG:  Solving for T, Initial residual = 7.78993e-17, Final residual = 7.78993e-17, No Iterations 0
DICPCG:  Solving for T, Initial residual = 7.78993e-17, Final residual = 7.78993e-17, No Iterations 0
nonDiag.size()=125

U.size()=125

F.size()=125

F = normalisedF;

Selected 0 cells for refinement out of 125.
Selected 0 split points out of a possible 0.
mesh updated
Time = 0.625

DICPCG:  Solving for T, Initial residual = 0.00340115, Final residual = 1.40669e-17, No Iterations 1
DICPCG:  Solving for T, Initial residual = 1.54335e-16, Final residual = 1.54335e-16, No Iterations 0
DICPCG:  Solving for T, Initial residual = 1.54335e-16, Final residual = 1.54335e-16, No Iterations 0
nonDiag.size()=125

U.size()=125

F.size()=125

F = normalisedF;

Selected 0 cells for refinement out of 125.
Selected 0 split points out of a possible 0.
mesh updated
Time = 0.63

DICPCG:  Solving for T, Initial residual = 0.00337404, Final residual = 1.3859e-17, No Iterations 1
DICPCG:  Solving for T, Initial residual = 7.5189e-17, Final residual = 7.5189e-17, No Iterations 0
DICPCG:  Solving for T, Initial residual = 7.5189e-17, Final residual = 7.5189e-17, No Iterations 0
nonDiag.size()=125

U.size()=125

F.size()=125

F = normalisedF;

Selected 0 cells for refinement out of 125.
Selected 0 split points out of a possible 0.
mesh updated
Time = 0.635

DICPCG:  Solving for T, Initial residual = 0.00334737, Final residual = 1.36934e-17, No Iterations 1
DICPCG:  Solving for T, Initial residual = 5.00467e-17, Final residual = 5.00467e-17, No Iterations 0
DICPCG:  Solving for T, Initial residual = 5.00467e-17, Final residual = 5.00467e-17, No Iterations 0
nonDiag.size()=125

U.size()=125

F.size()=125

F = normalisedF;

Selected 0 cells for refinement out of 125.
Selected 0 split points out of a possible 0.
mesh updated
Time = 0.64

DICPCG:  Solving for T, Initial residual = 0.00332111, Final residual = 1.3823e-17, No Iterations 1
DICPCG:  Solving for T, Initial residual = 9.84638e-17, Final residual = 9.84638e-17, No Iterations 0
DICPCG:  Solving for T, Initial residual = 9.84638e-17, Final residual = 9.84638e-17, No Iterations 0
nonDiag.size()=125

U.size()=125

F.size()=125

F = normalisedF;

Selected 0 cells for refinement out of 125.
Selected 0 split points out of a possible 0.
mesh updated
Time = 0.645

DICPCG:  Solving for T, Initial residual = 0.00329526, Final residual = 1.34944e-17, No Iterations 1
DICPCG:  Solving for T, Initial residual = 1.51091e-16, Final residual = 1.51091e-16, No Iterations 0
DICPCG:  Solving for T, Initial residual = 1.51091e-16, Final residual = 1.51091e-16, No Iterations 0
nonDiag.size()=125

U.size()=125

F.size()=125

F = normalisedF;

Selected 0 cells for refinement out of 125.
Selected 0 split points out of a possible 0.
mesh updated
Time = 0.65

DICPCG:  Solving for T, Initial residual = 0.00326981, Final residual = 1.33748e-17, No Iterations 1
DICPCG:  Solving for T, Initial residual = 6.28202e-17, Final residual = 6.28202e-17, No Iterations 0
DICPCG:  Solving for T, Initial residual = 6.28202e-17, Final residual = 6.28202e-17, No Iterations 0
nonDiag.size()=125

U.size()=125

F.size()=125

F = normalisedF;

Selected 0 cells for refinement out of 125.
Selected 0 split points out of a possible 0.
mesh updated
Time = 0.655

DICPCG:  Solving for T, Initial residual = 0.00324475, Final residual = 1.33035e-17, No Iterations 1
DICPCG:  Solving for T, Initial residual = 8.93352e-17, Final residual = 8.93352e-17, No Iterations 0
DICPCG:  Solving for T, Initial residual = 8.93352e-17, Final residual = 8.93352e-17, No Iterations 0
nonDiag.size()=125

U.size()=125

F.size()=125

F = normalisedF;

Selected 0 cells for refinement out of 125.
Selected 0 split points out of a possible 0.
mesh updated
Time = 0.66

DICPCG:  Solving for T, Initial residual = 0.00322008, Final residual = 1.32303e-17, No Iterations 1
DICPCG:  Solving for T, Initial residual = 7.45408e-17, Final residual = 7.45408e-17, No Iterations 0
DICPCG:  Solving for T, Initial residual = 7.45408e-17, Final residual = 7.45408e-17, No Iterations 0
nonDiag.size()=125

U.size()=125

F.size()=125

F = normalisedF;

Selected 0 cells for refinement out of 125.
Selected 0 split points out of a possible 0.
mesh updated
Time = 0.665

DICPCG:  Solving for T, Initial residual = 0.00319577, Final residual = 1.31934e-17, No Iterations 1
DICPCG:  Solving for T, Initial residual = 5.47749e-17, Final residual = 5.47749e-17, No Iterations 0
DICPCG:  Solving for T, Initial residual = 5.47749e-17, Final residual = 5.47749e-17, No Iterations 0
nonDiag.size()=125

U.size()=125

F.size()=125

F = normalisedF;

Selected 0 cells for refinement out of 125.
Selected 0 split points out of a possible 0.
mesh updated
Time = 0.67

DICPCG:  Solving for T, Initial residual = 0.00317183, Final residual = 1.30229e-17, No Iterations 1
DICPCG:  Solving for T, Initial residual = 3.08052e-17, Final residual = 3.08052e-17, No Iterations 0
DICPCG:  Solving for T, Initial residual = 3.08052e-17, Final residual = 3.08052e-17, No Iterations 0
nonDiag.size()=125

U.size()=125

F.size()=125

F = normalisedF;

Selected 0 cells for refinement out of 125.
Selected 0 split points out of a possible 0.
mesh updated
Time = 0.675

DICPCG:  Solving for T, Initial residual = 0.00314825, Final residual = 1.30574e-17, No Iterations 1
DICPCG:  Solving for T, Initial residual = 6.05305e-17, Final residual = 6.05305e-17, No Iterations 0
DICPCG:  Solving for T, Initial residual = 6.05305e-17, Final residual = 6.05305e-17, No Iterations 0
nonDiag.size()=125

U.size()=125

F.size()=125

F = normalisedF;

Selected 0 cells for refinement out of 125.
Selected 0 split points out of a possible 0.
mesh updated
Time = 0.68

DICPCG:  Solving for T, Initial residual = 0.00312501, Final residual = 1.27614e-17, No Iterations 1
DICPCG:  Solving for T, Initial residual = 9.96857e-17, Final residual = 9.96857e-17, No Iterations 0
DICPCG:  Solving for T, Initial residual = 9.96857e-17, Final residual = 9.96857e-17, No Iterations 0
nonDiag.size()=125

U.size()=125

F.size()=125

F = normalisedF;

Selected 0 cells for refinement out of 125.
Selected 0 split points out of a possible 0.
mesh updated
Time = 0.685

DICPCG:  Solving for T, Initial residual = 0.00310212, Final residual = 1.27572e-17, No Iterations 1
DICPCG:  Solving for T, Initial residual = 6.66996e-17, Final residual = 6.66996e-17, No Iterations 0
DICPCG:  Solving for T, Initial residual = 6.66996e-17, Final residual = 6.66996e-17, No Iterations 0
nonDiag.size()=125

U.size()=125

F.size()=125

F = normalisedF;

Selected 0 cells for refinement out of 125.
Selected 0 split points out of a possible 0.
mesh updated
Time = 0.69

DICPCG:  Solving for T, Initial residual = 0.00307955, Final residual = 1.25763e-17, No Iterations 1
DICPCG:  Solving for T, Initial residual = 1.0748e-16, Final residual = 1.0748e-16, No Iterations 0
DICPCG:  Solving for T, Initial residual = 1.0748e-16, Final residual = 1.0748e-16, No Iterations 0
nonDiag.size()=125

U.size()=125

F.size()=125

F = normalisedF;

Selected 0 cells for refinement out of 125.
Selected 0 split points out of a possible 0.
mesh updated
Time = 0.695

DICPCG:  Solving for T, Initial residual = 0.00305732, Final residual = 1.24981e-17, No Iterations 1
DICPCG:  Solving for T, Initial residual = 1.33541e-16, Final residual = 1.33541e-16, No Iterations 0
DICPCG:  Solving for T, Initial residual = 1.33541e-16, Final residual = 1.33541e-16, No Iterations 0
nonDiag.size()=125

U.size()=125

F.size()=125

F = normalisedF;

Selected 0 cells for refinement out of 125.
Selected 0 split points out of a possible 0.
mesh updated
Time = 0.7

DICPCG:  Solving for T, Initial residual = 0.0030354, Final residual = 1.2441e-17, No Iterations 1
DICPCG:  Solving for T, Initial residual = 7.57067e-17, Final residual = 7.57067e-17, No Iterations 0
DICPCG:  Solving for T, Initial residual = 7.57067e-17, Final residual = 7.57067e-17, No Iterations 0
nonDiag.size()=125

U.size()=125

F.size()=125

F = normalisedF;

Selected 0 cells for refinement out of 125.
Selected 0 split points out of a possible 0.
mesh updated
Time = 0.705

DICPCG:  Solving for T, Initial residual = 0.0030138, Final residual = 1.24544e-17, No Iterations 1
DICPCG:  Solving for T, Initial residual = 5.41689e-17, Final residual = 5.41689e-17, No Iterations 0
DICPCG:  Solving for T, Initial residual = 5.41689e-17, Final residual = 5.41689e-17, No Iterations 0
nonDiag.size()=125

U.size()=125

F.size()=125

F = normalisedF;

Selected 0 cells for refinement out of 125.
Selected 0 split points out of a possible 0.
mesh updated
Time = 0.71

DICPCG:  Solving for T, Initial residual = 0.0029925, Final residual = 1.2237e-17, No Iterations 1
DICPCG:  Solving for T, Initial residual = 7.05768e-17, Final residual = 7.05768e-17, No Iterations 0
DICPCG:  Solving for T, Initial residual = 7.05768e-17, Final residual = 7.05768e-17, No Iterations 0
nonDiag.size()=125

U.size()=125

F.size()=125

F = normalisedF;

Selected 0 cells for refinement out of 125.
Selected 0 split points out of a possible 0.
mesh updated
Time = 0.715

DICPCG:  Solving for T, Initial residual = 0.0029715, Final residual = 1.23263e-17, No Iterations 1
DICPCG:  Solving for T, Initial residual = 3.67696e-17, Final residual = 3.67696e-17, No Iterations 0
DICPCG:  Solving for T, Initial residual = 3.67696e-17, Final residual = 3.67696e-17, No Iterations 0
nonDiag.size()=125

U.size()=125

F.size()=125

F = normalisedF;

Selected 0 cells for refinement out of 125.
Selected 0 split points out of a possible 0.
mesh updated
Time = 0.72

DICPCG:  Solving for T, Initial residual = 0.00295079, Final residual = 1.21125e-17, No Iterations 1
DICPCG:  Solving for T, Initial residual = 2.72554e-17, Final residual = 2.72554e-17, No Iterations 0
DICPCG:  Solving for T, Initial residual = 2.72554e-17, Final residual = 2.72554e-17, No Iterations 0
nonDiag.size()=125

U.size()=125

F.size()=125

F = normalisedF;

Selected 0 cells for refinement out of 125.
Selected 0 split points out of a possible 0.
mesh updated
Time = 0.725

DICPCG:  Solving for T, Initial residual = 0.00293037, Final residual = 1.20193e-17, No Iterations 1
DICPCG:  Solving for T, Initial residual = 3.95888e-17, Final residual = 3.95888e-17, No Iterations 0
DICPCG:  Solving for T, Initial residual = 3.95888e-17, Final residual = 3.95888e-17, No Iterations 0
nonDiag.size()=125

U.size()=125

F.size()=125

F = normalisedF;

Selected 0 cells for refinement out of 125.
Selected 0 split points out of a possible 0.
mesh updated
Time = 0.73

DICPCG:  Solving for T, Initial residual = 0.00291023, Final residual = 1.18448e-17, No Iterations 1
DICPCG:  Solving for T, Initial residual = 9.69372e-17, Final residual = 9.69372e-17, No Iterations 0
DICPCG:  Solving for T, Initial residual = 9.69372e-17, Final residual = 9.69372e-17, No Iterations 0
nonDiag.size()=125

U.size()=125

F.size()=125

F = normalisedF;

Selected 0 cells for refinement out of 125.
Selected 0 split points out of a possible 0.
mesh updated
Time = 0.735

DICPCG:  Solving for T, Initial residual = 0.00289037, Final residual = 1.20131e-17, No Iterations 1
DICPCG:  Solving for T, Initial residual = 7.8263e-17, Final residual = 7.8263e-17, No Iterations 0
DICPCG:  Solving for T, Initial residual = 7.8263e-17, Final residual = 7.8263e-17, No Iterations 0
nonDiag.size()=125

U.size()=125

F.size()=125

F = normalisedF;

Selected 0 cells for refinement out of 125.
Selected 0 split points out of a possible 0.
mesh updated
Time = 0.74

DICPCG:  Solving for T, Initial residual = 0.00287077, Final residual = 1.20698e-17, No Iterations 1
DICPCG:  Solving for T, Initial residual = 4.5122e-17, Final residual = 4.5122e-17, No Iterations 0
DICPCG:  Solving for T, Initial residual = 4.5122e-17, Final residual = 4.5122e-17, No Iterations 0
nonDiag.size()=125

U.size()=125

F.size()=125

F = normalisedF;

Selected 0 cells for refinement out of 125.
Selected 0 split points out of a possible 0.
mesh updated
Time = 0.745

DICPCG:  Solving for T, Initial residual = 0.00285144, Final residual = 1.18863e-17, No Iterations 1
DICPCG:  Solving for T, Initial residual = 8.00238e-17, Final residual = 8.00238e-17, No Iterations 0
DICPCG:  Solving for T, Initial residual = 8.00238e-17, Final residual = 8.00238e-17, No Iterations 0
nonDiag.size()=125

U.size()=125

F.size()=125

F = normalisedF;

Selected 0 cells for refinement out of 125.
Selected 0 split points out of a possible 0.
mesh updated
Time = 0.75

DICPCG:  Solving for T, Initial residual = 0.00283237, Final residual = 1.17618e-17, No Iterations 1
DICPCG:  Solving for T, Initial residual = 5.56638e-17, Final residual = 5.56638e-17, No Iterations 0
DICPCG:  Solving for T, Initial residual = 5.56638e-17, Final residual = 5.56638e-17, No Iterations 0
nonDiag.size()=125

U.size()=125

F.size()=125

F = normalisedF;

Selected 0 cells for refinement out of 125.
Selected 0 split points out of a possible 0.
mesh updated
Time = 0.755

DICPCG:  Solving for T, Initial residual = 0.00281355, Final residual = 1.16887e-17, No Iterations 1
DICPCG:  Solving for T, Initial residual = 5.91351e-17, Final residual = 5.91351e-17, No Iterations 0
DICPCG:  Solving for T, Initial residual = 5.91351e-17, Final residual = 5.91351e-17, No Iterations 0
nonDiag.size()=125

U.size()=125

F.size()=125

F = normalisedF;

Selected 0 cells for refinement out of 125.
Selected 0 split points out of a possible 0.
mesh updated
Time = 0.76

DICPCG:  Solving for T, Initial residual = 0.00279498, Final residual = 1.14741e-17, No Iterations 1
DICPCG:  Solving for T, Initial residual = 9.89753e-17, Final residual = 9.89753e-17, No Iterations 0
DICPCG:  Solving for T, Initial residual = 9.89753e-17, Final residual = 9.89753e-17, No Iterations 0
nonDiag.size()=125

U.size()=125

F.size()=125

F = normalisedF;

Selected 0 cells for refinement out of 125.
Selected 0 split points out of a possible 0.
mesh updated
Time = 0.765

DICPCG:  Solving for T, Initial residual = 0.00277665, Final residual = 1.17472e-17, No Iterations 1
DICPCG:  Solving for T, Initial residual = 3.05847e-17, Final residual = 3.05847e-17, No Iterations 0
DICPCG:  Solving for T, Initial residual = 3.05847e-17, Final residual = 3.05847e-17, No Iterations 0
nonDiag.size()=125

U.size()=125

F.size()=125

F = normalisedF;

Selected 0 cells for refinement out of 125.
Selected 0 split points out of a possible 0.
mesh updated
Time = 0.77

DICPCG:  Solving for T, Initial residual = 0.00275857, Final residual = 1.12838e-17, No Iterations 1
DICPCG:  Solving for T, Initial residual = 3.42965e-17, Final residual = 3.42965e-17, No Iterations 0
DICPCG:  Solving for T, Initial residual = 3.42965e-17, Final residual = 3.42965e-17, No Iterations 0
nonDiag.size()=125

U.size()=125

F.size()=125

F = normalisedF;

Selected 0 cells for refinement out of 125.
Selected 0 split points out of a possible 0.
mesh updated
Time = 0.775

DICPCG:  Solving for T, Initial residual = 0.00274071, Final residual = 1.12357e-17, No Iterations 1
DICPCG:  Solving for T, Initial residual = 4.40959e-17, Final residual = 4.40959e-17, No Iterations 0
DICPCG:  Solving for T, Initial residual = 4.40959e-17, Final residual = 4.40959e-17, No Iterations 0
nonDiag.size()=125

U.size()=125

F.size()=125

F = normalisedF;

Selected 0 cells for refinement out of 125.
Selected 0 split points out of a possible 0.
mesh updated
Time = 0.78

DICPCG:  Solving for T, Initial residual = 0.00272309, Final residual = 1.11621e-17, No Iterations 1
DICPCG:  Solving for T, Initial residual = 7.15517e-17, Final residual = 7.15517e-17, No Iterations 0
DICPCG:  Solving for T, Initial residual = 7.15517e-17, Final residual = 7.15517e-17, No Iterations 0
nonDiag.size()=125

U.size()=125

F.size()=125

F = normalisedF;

Selected 0 cells for refinement out of 125.
Selected 0 split points out of a possible 0.
mesh updated
Time = 0.785

DICPCG:  Solving for T, Initial residual = 0.00270569, Final residual = 1.11071e-17, No Iterations 1
DICPCG:  Solving for T, Initial residual = 7.68584e-17, Final residual = 7.68584e-17, No Iterations 0
DICPCG:  Solving for T, Initial residual = 7.68584e-17, Final residual = 7.68584e-17, No Iterations 0
nonDiag.size()=125

U.size()=125

F.size()=125

F = normalisedF;

Selected 0 cells for refinement out of 125.
Selected 0 split points out of a possible 0.
mesh updated
Time = 0.79

DICPCG:  Solving for T, Initial residual = 0.00268851, Final residual = 1.12587e-17, No Iterations 1
DICPCG:  Solving for T, Initial residual = 5.21834e-17, Final residual = 5.21834e-17, No Iterations 0
DICPCG:  Solving for T, Initial residual = 5.21834e-17, Final residual = 5.21834e-17, No Iterations 0
nonDiag.size()=125

U.size()=125

F.size()=125

F = normalisedF;

Selected 0 cells for refinement out of 125.
Selected 0 split points out of a possible 0.
mesh updated
Time = 0.795

DICPCG:  Solving for T, Initial residual = 0.00267155, Final residual = 1.10662e-17, No Iterations 1
DICPCG:  Solving for T, Initial residual = 4.49563e-17, Final residual = 4.49563e-17, No Iterations 0
DICPCG:  Solving for T, Initial residual = 4.49563e-17, Final residual = 4.49563e-17, No Iterations 0
nonDiag.size()=125

U.size()=125

F.size()=125

F = normalisedF;

Selected 0 cells for refinement out of 125.
Selected 0 split points out of a possible 0.
mesh updated
Time = 0.8

DICPCG:  Solving for T, Initial residual = 0.00265481, Final residual = 1.09294e-17, No Iterations 1
DICPCG:  Solving for T, Initial residual = 3.01543e-17, Final residual = 3.01543e-17, No Iterations 0
DICPCG:  Solving for T, Initial residual = 3.01543e-17, Final residual = 3.01543e-17, No Iterations 0
nonDiag.size()=125

U.size()=125

F.size()=125

F = normalisedF;

Selected 0 cells for refinement out of 125.
Selected 0 split points out of a possible 0.
mesh updated
Time = 0.805

DICPCG:  Solving for T, Initial residual = 0.00263827, Final residual = 1.08039e-17, No Iterations 1
DICPCG:  Solving for T, Initial residual = 3.94298e-17, Final residual = 3.94298e-17, No Iterations 0
DICPCG:  Solving for T, Initial residual = 3.94298e-17, Final residual = 3.94298e-17, No Iterations 0
nonDiag.size()=125

U.size()=125

F.size()=125

F = normalisedF;

Selected 0 cells for refinement out of 125.
Selected 0 split points out of a possible 0.
mesh updated
Time = 0.81

DICPCG:  Solving for T, Initial residual = 0.00262193, Final residual = 1.07544e-17, No Iterations 1
DICPCG:  Solving for T, Initial residual = 3.49164e-17, Final residual = 3.49164e-17, No Iterations 0
DICPCG:  Solving for T, Initial residual = 3.49164e-17, Final residual = 3.49164e-17, No Iterations 0
nonDiag.size()=125

U.size()=125

F.size()=125

F = normalisedF;

Selected 0 cells for refinement out of 125.
Selected 0 split points out of a possible 0.
mesh updated
Time = 0.815

[...]
DICPCG:  Solving for T, Initial residual = 9.23652e-17, Final residual = 9.23652e-17, No Iterations 0
DICPCG:  Solving for T, Initial residual = 9.23652e-17, Final residual = 9.23652e-17, No Iterations 0
nonDiag.size()=125

U.size()=125

F.size()=125

F = normalisedF;

Selected 0 cells for refinement out of 125.
Selected 0 split points out of a possible 0.
mesh updated
Time = 9.805

DICPCG:  Solving for T, Initial residual = 0.000217503, Final residual = 9.00863e-19, No Iterations 1
DICPCG:  Solving for T, Initial residual = 7.41661e-17, Final residual = 7.41661e-17, No Iterations 0
DICPCG:  Solving for T, Initial residual = 7.41661e-17, Final residual = 7.41661e-17, No Iterations 0
nonDiag.size()=125

U.size()=125

F.size()=125

F = normalisedF;

Selected 0 cells for refinement out of 125.
Selected 0 split points out of a possible 0.
mesh updated
Time = 9.81

DICPCG:  Solving for T, Initial residual = 0.000217393, Final residual = 9.09159e-19, No Iterations 1
DICPCG:  Solving for T, Initial residual = 6.8922e-17, Final residual = 6.8922e-17, No Iterations 0
DICPCG:  Solving for T, Initial residual = 6.8922e-17, Final residual = 6.8922e-17, No Iterations 0
nonDiag.size()=125

U.size()=125

F.size()=125

F = normalisedF;

Selected 0 cells for refinement out of 125.
Selected 0 split points out of a possible 0.
mesh updated
Time = 9.815

DICPCG:  Solving for T, Initial residual = 0.000217283, Final residual = 8.98156e-19, No Iterations 1
DICPCG:  Solving for T, Initial residual = 6.62696e-17, Final residual = 6.62696e-17, No Iterations 0
DICPCG:  Solving for T, Initial residual = 6.62696e-17, Final residual = 6.62696e-17, No Iterations 0
nonDiag.size()=125

U.size()=125

F.size()=125

F = normalisedF;

Selected 0 cells for refinement out of 125.
Selected 0 split points out of a possible 0.
mesh updated
Time = 9.82

DICPCG:  Solving for T, Initial residual = 0.000217173, Final residual = 8.90597e-19, No Iterations 1
DICPCG:  Solving for T, Initial residual = 6.17286e-17, Final residual = 6.17286e-17, No Iterations 0
DICPCG:  Solving for T, Initial residual = 6.17286e-17, Final residual = 6.17286e-17, No Iterations 0
nonDiag.size()=125

U.size()=125

F.size()=125

F = normalisedF;

Selected 0 cells for refinement out of 125.
Selected 0 split points out of a possible 0.
mesh updated
Time = 9.825

DICPCG:  Solving for T, Initial residual = 0.000217064, Final residual = 9.05642e-19, No Iterations 1
DICPCG:  Solving for T, Initial residual = 6.38341e-17, Final residual = 6.38341e-17, No Iterations 0
DICPCG:  Solving for T, Initial residual = 6.38341e-17, Final residual = 6.38341e-17, No Iterations 0
nonDiag.size()=125

U.size()=125

F.size()=125

F = normalisedF;

Selected 0 cells for refinement out of 125.
Selected 0 split points out of a possible 0.
mesh updated
Time = 9.83

DICPCG:  Solving for T, Initial residual = 0.000216954, Final residual = 8.82866e-19, No Iterations 1
DICPCG:  Solving for T, Initial residual = 8.75896e-17, Final residual = 8.75896e-17, No Iterations 0
DICPCG:  Solving for T, Initial residual = 8.75896e-17, Final residual = 8.75896e-17, No Iterations 0
nonDiag.size()=125

U.size()=125

F.size()=125

F = normalisedF;

Selected 0 cells for refinement out of 125.
Selected 0 split points out of a possible 0.
mesh updated
Time = 9.835

DICPCG:  Solving for T, Initial residual = 0.000216845, Final residual = 8.9536e-19, No Iterations 1
DICPCG:  Solving for T, Initial residual = 8.19381e-17, Final residual = 8.19381e-17, No Iterations 0
DICPCG:  Solving for T, Initial residual = 8.19381e-17, Final residual = 8.19381e-17, No Iterations 0
nonDiag.size()=125

U.size()=125

F.size()=125

F = normalisedF;

Selected 0 cells for refinement out of 125.
Selected 0 split points out of a possible 0.
mesh updated
Time = 9.84

DICPCG:  Solving for T, Initial residual = 0.000216735, Final residual = 8.98726e-19, No Iterations 1
DICPCG:  Solving for T, Initial residual = 7.72988e-17, Final residual = 7.72988e-17, No Iterations 0
DICPCG:  Solving for T, Initial residual = 7.72988e-17, Final residual = 7.72988e-17, No Iterations 0
nonDiag.size()=125

U.size()=125

F.size()=125

F = normalisedF;

Selected 0 cells for refinement out of 125.
Selected 0 split points out of a possible 0.
mesh updated
Time = 9.845

DICPCG:  Solving for T, Initial residual = 0.000216626, Final residual = 8.96245e-19, No Iterations 1
DICPCG:  Solving for T, Initial residual = 4.19668e-17, Final residual = 4.19668e-17, No Iterations 0
DICPCG:  Solving for T, Initial residual = 4.19668e-17, Final residual = 4.19668e-17, No Iterations 0
nonDiag.size()=125

U.size()=125

F.size()=125

F = normalisedF;

Selected 0 cells for refinement out of 125.
Selected 0 split points out of a possible 0.
mesh updated
Time = 9.85

DICPCG:  Solving for T, Initial residual = 0.000216517, Final residual = 9.05847e-19, No Iterations 1
DICPCG:  Solving for T, Initial residual = 1.13325e-16, Final residual = 1.13325e-16, No Iterations 0
DICPCG:  Solving for T, Initial residual = 1.13325e-16, Final residual = 1.13325e-16, No Iterations 0
nonDiag.size()=125

U.size()=125

F.size()=125

F = normalisedF;

Selected 0 cells for refinement out of 125.
Selected 0 split points out of a possible 0.
mesh updated
Time = 9.855

DICPCG:  Solving for T, Initial residual = 0.000216408, Final residual = 8.91445e-19, No Iterations 1
DICPCG:  Solving for T, Initial residual = 5.11595e-17, Final residual = 5.11595e-17, No Iterations 0
DICPCG:  Solving for T, Initial residual = 5.11595e-17, Final residual = 5.11595e-17, No Iterations 0
nonDiag.size()=125

U.size()=125

F.size()=125

F = normalisedF;

Selected 0 cells for refinement out of 125.
Selected 0 split points out of a possible 0.
mesh updated
Time = 9.86

DICPCG:  Solving for T, Initial residual = 0.000216299, Final residual = 8.98265e-19, No Iterations 1
DICPCG:  Solving for T, Initial residual = 4.35659e-17, Final residual = 4.35659e-17, No Iterations 0
DICPCG:  Solving for T, Initial residual = 4.35659e-17, Final residual = 4.35659e-17, No Iterations 0
nonDiag.size()=125

U.size()=125

F.size()=125

F = normalisedF;

Selected 0 cells for refinement out of 125.
Selected 0 split points out of a possible 0.
mesh updated
Time = 9.865

DICPCG:  Solving for T, Initial residual = 0.000216191, Final residual = 8.99978e-19, No Iterations 1
DICPCG:  Solving for T, Initial residual = 7.99296e-17, Final residual = 7.99296e-17, No Iterations 0
DICPCG:  Solving for T, Initial residual = 7.99296e-17, Final residual = 7.99296e-17, No Iterations 0
nonDiag.size()=125

U.size()=125

F.size()=125

F = normalisedF;

Selected 0 cells for refinement out of 125.
Selected 0 split points out of a possible 0.
mesh updated
Time = 9.87

DICPCG:  Solving for T, Initial residual = 0.000216082, Final residual = 9.02317e-19, No Iterations 1
DICPCG:  Solving for T, Initial residual = 7.10112e-17, Final residual = 7.10112e-17, No Iterations 0
DICPCG:  Solving for T, Initial residual = 7.10112e-17, Final residual = 7.10112e-17, No Iterations 0
nonDiag.size()=125

U.size()=125

F.size()=125

F = normalisedF;

Selected 0 cells for refinement out of 125.
Selected 0 split points out of a possible 0.
mesh updated
Time = 9.875

DICPCG:  Solving for T, Initial residual = 0.000215973, Final residual = 8.85269e-19, No Iterations 1
DICPCG:  Solving for T, Initial residual = 6.79533e-17, Final residual = 6.79533e-17, No Iterations 0
DICPCG:  Solving for T, Initial residual = 6.79533e-17, Final residual = 6.79533e-17, No Iterations 0
nonDiag.size()=125

U.size()=125

F.size()=125

F = normalisedF;

Selected 0 cells for refinement out of 125.
Selected 0 split points out of a possible 0.
mesh updated
Time = 9.88

DICPCG:  Solving for T, Initial residual = 0.000215865, Final residual = 8.90476e-19, No Iterations 1
DICPCG:  Solving for T, Initial residual = 6.00954e-17, Final residual = 6.00954e-17, No Iterations 0
DICPCG:  Solving for T, Initial residual = 6.00954e-17, Final residual = 6.00954e-17, No Iterations 0
nonDiag.size()=125

U.size()=125

F.size()=125

F = normalisedF;

Selected 0 cells for refinement out of 125.
Selected 0 split points out of a possible 0.
mesh updated
Time = 9.885

DICPCG:  Solving for T, Initial residual = 0.000215757, Final residual = 8.88695e-19, No Iterations 1
DICPCG:  Solving for T, Initial residual = 1.05867e-16, Final residual = 1.05867e-16, No Iterations 0
DICPCG:  Solving for T, Initial residual = 1.05867e-16, Final residual = 1.05867e-16, No Iterations 0
nonDiag.size()=125

U.size()=125

F.size()=125

F = normalisedF;

Selected 0 cells for refinement out of 125.
Selected 0 split points out of a possible 0.
mesh updated
Time = 9.89

DICPCG:  Solving for T, Initial residual = 0.000215648, Final residual = 8.87517e-19, No Iterations 1
DICPCG:  Solving for T, Initial residual = 6.31642e-17, Final residual = 6.31642e-17, No Iterations 0
DICPCG:  Solving for T, Initial residual = 6.31642e-17, Final residual = 6.31642e-17, No Iterations 0
nonDiag.size()=125

U.size()=125

F.size()=125

F = normalisedF;

Selected 0 cells for refinement out of 125.
Selected 0 split points out of a possible 0.
mesh updated
Time = 9.895

DICPCG:  Solving for T, Initial residual = 0.00021554, Final residual = 8.92245e-19, No Iterations 1
DICPCG:  Solving for T, Initial residual = 8.71967e-17, Final residual = 8.71967e-17, No Iterations 0
DICPCG:  Solving for T, Initial residual = 8.71967e-17, Final residual = 8.71967e-17, No Iterations 0
nonDiag.size()=125

U.size()=125

F.size()=125

F = normalisedF;

Selected 0 cells for refinement out of 125.
Selected 0 split points out of a possible 0.
mesh updated
Time = 9.9

DICPCG:  Solving for T, Initial residual = 0.000215432, Final residual = 8.86664e-19, No Iterations 1
DICPCG:  Solving for T, Initial residual = 1.06804e-16, Final residual = 1.06804e-16, No Iterations 0
DICPCG:  Solving for T, Initial residual = 1.06804e-16, Final residual = 1.06804e-16, No Iterations 0
nonDiag.size()=125

U.size()=125

F.size()=125

F = normalisedF;

Selected 0 cells for refinement out of 125.
Selected 0 split points out of a possible 0.
mesh updated
Time = 9.905

DICPCG:  Solving for T, Initial residual = 0.000215324, Final residual = 8.85497e-19, No Iterations 1
DICPCG:  Solving for T, Initial residual = 9.63847e-17, Final residual = 9.63847e-17, No Iterations 0
DICPCG:  Solving for T, Initial residual = 9.63847e-17, Final residual = 9.63847e-17, No Iterations 0
nonDiag.size()=125

U.size()=125

F.size()=125

F = normalisedF;

Selected 0 cells for refinement out of 125.
Selected 0 split points out of a possible 0.
mesh updated
Time = 9.91

DICPCG:  Solving for T, Initial residual = 0.000215217, Final residual = 9.0314e-19, No Iterations 1
DICPCG:  Solving for T, Initial residual = 6.13684e-17, Final residual = 6.13684e-17, No Iterations 0
DICPCG:  Solving for T, Initial residual = 6.13684e-17, Final residual = 6.13684e-17, No Iterations 0
nonDiag.size()=125

U.size()=125

F.size()=125

F = normalisedF;

Selected 0 cells for refinement out of 125.
Selected 0 split points out of a possible 0.
mesh updated
Time = 9.915

DICPCG:  Solving for T, Initial residual = 0.000215109, Final residual = 8.965e-19, No Iterations 1
DICPCG:  Solving for T, Initial residual = 8.55918e-17, Final residual = 8.55918e-17, No Iterations 0
DICPCG:  Solving for T, Initial residual = 8.55918e-17, Final residual = 8.55918e-17, No Iterations 0
nonDiag.size()=125

U.size()=125

F.size()=125

F = normalisedF;

Selected 0 cells for refinement out of 125.
Selected 0 split points out of a possible 0.
mesh updated
Time = 9.92

DICPCG:  Solving for T, Initial residual = 0.000215001, Final residual = 8.85003e-19, No Iterations 1
DICPCG:  Solving for T, Initial residual = 5.21324e-17, Final residual = 5.21324e-17, No Iterations 0
DICPCG:  Solving for T, Initial residual = 5.21324e-17, Final residual = 5.21324e-17, No Iterations 0
nonDiag.size()=125

U.size()=125

F.size()=125

F = normalisedF;

Selected 0 cells for refinement out of 125.
Selected 0 split points out of a possible 0.
mesh updated
Time = 9.925

DICPCG:  Solving for T, Initial residual = 0.000214894, Final residual = 8.83526e-19, No Iterations 1
DICPCG:  Solving for T, Initial residual = 6.44177e-17, Final residual = 6.44177e-17, No Iterations 0
DICPCG:  Solving for T, Initial residual = 6.44177e-17, Final residual = 6.44177e-17, No Iterations 0
nonDiag.size()=125

U.size()=125

F.size()=125

F = normalisedF;

Selected 0 cells for refinement out of 125.
Selected 0 split points out of a possible 0.
mesh updated
Time = 9.93

DICPCG:  Solving for T, Initial residual = 0.000214787, Final residual = 8.85911e-19, No Iterations 1
DICPCG:  Solving for T, Initial residual = 8.20764e-17, Final residual = 8.20764e-17, No Iterations 0
DICPCG:  Solving for T, Initial residual = 8.20764e-17, Final residual = 8.20764e-17, No Iterations 0
nonDiag.size()=125

U.size()=125

F.size()=125

F = normalisedF;

Selected 0 cells for refinement out of 125.
Selected 0 split points out of a possible 0.
mesh updated
Time = 9.935

DICPCG:  Solving for T, Initial residual = 0.000214679, Final residual = 8.93045e-19, No Iterations 1
DICPCG:  Solving for T, Initial residual = 5.64906e-17, Final residual = 5.64906e-17, No Iterations 0
DICPCG:  Solving for T, Initial residual = 5.64906e-17, Final residual = 5.64906e-17, No Iterations 0
nonDiag.size()=125

U.size()=125

F.size()=125

F = normalisedF;

Selected 0 cells for refinement out of 125.
Selected 0 split points out of a possible 0.
mesh updated
Time = 9.94

DICPCG:  Solving for T, Initial residual = 0.000214572, Final residual = 8.852e-19, No Iterations 1
DICPCG:  Solving for T, Initial residual = 7.77534e-17, Final residual = 7.77534e-17, No Iterations 0
DICPCG:  Solving for T, Initial residual = 7.77534e-17, Final residual = 7.77534e-17, No Iterations 0
nonDiag.size()=125

U.size()=125

F.size()=125

F = normalisedF;

Selected 0 cells for refinement out of 125.
Selected 0 split points out of a possible 0.
mesh updated
Time = 9.945

DICPCG:  Solving for T, Initial residual = 0.000214465, Final residual = 8.81959e-19, No Iterations 1
DICPCG:  Solving for T, Initial residual = 8.22824e-17, Final residual = 8.22824e-17, No Iterations 0
DICPCG:  Solving for T, Initial residual = 8.22824e-17, Final residual = 8.22824e-17, No Iterations 0
nonDiag.size()=125

U.size()=125

F.size()=125

F = normalisedF;

Selected 0 cells for refinement out of 125.
Selected 0 split points out of a possible 0.
mesh updated
Time = 9.95

DICPCG:  Solving for T, Initial residual = 0.000214358, Final residual = 8.85973e-19, No Iterations 1
DICPCG:  Solving for T, Initial residual = 7.01809e-17, Final residual = 7.01809e-17, No Iterations 0
DICPCG:  Solving for T, Initial residual = 7.01809e-17, Final residual = 7.01809e-17, No Iterations 0
nonDiag.size()=125

U.size()=125

F.size()=125

F = normalisedF;

Selected 0 cells for refinement out of 125.
Selected 0 split points out of a possible 0.
mesh updated
Time = 9.955

DICPCG:  Solving for T, Initial residual = 0.000214251, Final residual = 8.93657e-19, No Iterations 1
DICPCG:  Solving for T, Initial residual = 4.60818e-17, Final residual = 4.60818e-17, No Iterations 0
DICPCG:  Solving for T, Initial residual = 4.60818e-17, Final residual = 4.60818e-17, No Iterations 0
nonDiag.size()=125

U.size()=125

F.size()=125

F = normalisedF;

Selected 0 cells for refinement out of 125.
Selected 0 split points out of a possible 0.
mesh updated
Time = 9.96

DICPCG:  Solving for T, Initial residual = 0.000214145, Final residual = 8.71523e-19, No Iterations 1
DICPCG:  Solving for T, Initial residual = 8.22239e-17, Final residual = 8.22239e-17, No Iterations 0
DICPCG:  Solving for T, Initial residual = 8.22239e-17, Final residual = 8.22239e-17, No Iterations 0
nonDiag.size()=125

U.size()=125

F.size()=125

F = normalisedF;

Selected 0 cells for refinement out of 125.
Selected 0 split points out of a possible 0.
mesh updated
Time = 9.965

DICPCG:  Solving for T, Initial residual = 0.000214038, Final residual = 8.81753e-19, No Iterations 1
DICPCG:  Solving for T, Initial residual = 1.04428e-16, Final residual = 1.04428e-16, No Iterations 0
DICPCG:  Solving for T, Initial residual = 1.04428e-16, Final residual = 1.04428e-16, No Iterations 0
nonDiag.size()=125

U.size()=125

F.size()=125

F = normalisedF;

Selected 0 cells for refinement out of 125.
Selected 0 split points out of a possible 0.
mesh updated
Time = 9.97

DICPCG:  Solving for T, Initial residual = 0.000213932, Final residual = 8.86671e-19, No Iterations 1
DICPCG:  Solving for T, Initial residual = 8.78376e-17, Final residual = 8.78376e-17, No Iterations 0
DICPCG:  Solving for T, Initial residual = 8.78376e-17, Final residual = 8.78376e-17, No Iterations 0
nonDiag.size()=125

U.size()=125

F.size()=125

F = normalisedF;

Selected 0 cells for refinement out of 125.
Selected 0 split points out of a possible 0.
mesh updated
Time = 9.975

DICPCG:  Solving for T, Initial residual = 0.000213825, Final residual = 8.85389e-19, No Iterations 1
DICPCG:  Solving for T, Initial residual = 8.33521e-17, Final residual = 8.33521e-17, No Iterations 0
DICPCG:  Solving for T, Initial residual = 8.33521e-17, Final residual = 8.33521e-17, No Iterations 0
nonDiag.size()=125

U.size()=125

F.size()=125

F = normalisedF;

Selected 0 cells for refinement out of 125.
Selected 0 split points out of a possible 0.
mesh updated
Time = 9.98

DICPCG:  Solving for T, Initial residual = 0.000213719, Final residual = 8.84841e-19, No Iterations 1
DICPCG:  Solving for T, Initial residual = 9.57013e-17, Final residual = 9.57013e-17, No Iterations 0
DICPCG:  Solving for T, Initial residual = 9.57013e-17, Final residual = 9.57013e-17, No Iterations 0
nonDiag.size()=125

U.size()=125

F.size()=125

F = normalisedF;

Selected 0 cells for refinement out of 125.
Selected 0 split points out of a possible 0.
mesh updated
Time = 9.985

DICPCG:  Solving for T, Initial residual = 0.000213613, Final residual = 8.80692e-19, No Iterations 1
DICPCG:  Solving for T, Initial residual = 1.01343e-16, Final residual = 1.01343e-16, No Iterations 0
DICPCG:  Solving for T, Initial residual = 1.01343e-16, Final residual = 1.01343e-16, No Iterations 0
nonDiag.size()=125

U.size()=125

F.size()=125

F = normalisedF;

Selected 0 cells for refinement out of 125.
Selected 0 split points out of a possible 0.
mesh updated
Time = 9.99

DICPCG:  Solving for T, Initial residual = 0.000213507, Final residual = 8.77648e-19, No Iterations 1
DICPCG:  Solving for T, Initial residual = 5.07527e-17, Final residual = 5.07527e-17, No Iterations 0
DICPCG:  Solving for T, Initial residual = 5.07527e-17, Final residual = 5.07527e-17, No Iterations 0
nonDiag.size()=125

U.size()=125

F.size()=125

F = normalisedF;

Selected 0 cells for refinement out of 125.
Selected 0 split points out of a possible 0.
mesh updated
Time = 9.995

DICPCG:  Solving for T, Initial residual = 0.000213401, Final residual = 8.77594e-19, No Iterations 1
DICPCG:  Solving for T, Initial residual = 4.60386e-17, Final residual = 4.60386e-17, No Iterations 0
DICPCG:  Solving for T, Initial residual = 4.60386e-17, Final residual = 4.60386e-17, No Iterations 0
nonDiag.size()=125

U.size()=125

F.size()=125

F = normalisedF;

Selected 0 cells for refinement out of 125.
Selected 0 split points out of a possible 0.
mesh updated
Time = 10

DICPCG:  Solving for T, Initial residual = 0.000213295, Final residual = 8.80448e-19, No Iterations 1
DICPCG:  Solving for T, Initial residual = 4.88027e-17, Final residual = 4.88027e-17, No Iterations 0
DICPCG:  Solving for T, Initial residual = 4.88027e-17, Final residual = 4.88027e-17, No Iterations 0
nonDiag.size()=125

U.size()=125

F.size()=125

F = normalisedF;

Selected 0 cells for refinement out of 125.
Selected 0 split points out of a possible 0.
mesh updated
ExecutionTime = 4.64 s  ClockTime = 11 s

End

